AVX17557_2, 3
##########                 Name:           AVX17557_0
##########          Protonation:                  100
##########               SMILES:   c1ccc2c(c1)C[C@@H]([C@H]2Cc3ccc4c(c3C(=O)[O-])OCO4)NC(=O)CCCCC[NH3+]
##########            Long Name:   -(6-azaniumylhexanoylamino)indan-1-yl]methyl]-1,3-benzodioxole-4-carboxylate
##########          FlexRecCode: 1
##########               Number:                  696
##########   Ligand Source File: /raid1/people/rgc/Examples/sampl4/screening/ligands/build_1//sampl4-hivint-00000
##########           GlobalRank: 46
##########                 Rank:                    1
##########               Setnum:                    6
##########             Matchnum:                20151
##########                Cloud:                    1
##########        Electrostatic:           -27.756510
##########        Van der Waals:           -23.277281
##########  Ligand Polar Desolv:            14.473669
########## Ligand Apolar Desolv:            -2.751438
##########      Internal Energy:             0.000000
##########      Receptor Energy: 0.0
########## Receptor Desolvation:             0.000000
########## Receptor Hydrophobic:             0.000000
##########         Total Energy: -39.31
##########        Ligand Charge:             0.000000
##########            Arbitrary:    +999.9990
##########     heavy atom count:   31
##########           pose count:    1
##########        Ligand Energy:             0.000000
# num electro vdwattr vdwrepu polsolv apolsol rdesolv rhydroe totalscore fullpol fullapo
#   1   -1.71   -0.18    0.00   -1.71    0.08    0.00    0.00      -3.52  -19.22    0.86
#   2    1.14    0.00    0.00    0.79    0.03    0.00    0.00       1.95   15.90    0.60
#   3    1.90    0.00    0.00    0.56    0.02    0.00    0.00       2.47   14.44    0.58
#   4    0.96    0.00    0.00    0.40    0.02    0.00    0.00       1.38   14.90    0.58
#   5   -0.01   -0.14    0.00    0.06   -0.04    0.00    0.00      -0.12    0.81   -0.49
#   6   -0.09   -0.09    0.00   -0.17   -0.01    0.00    0.00      -0.37   -2.84   -0.24
#   7   -0.19   -0.18    0.01   -0.15   -0.02    0.00    0.00      -0.53   -1.33   -0.22
#   8   -0.08   -0.15    0.01   -0.03   -0.02    0.00    0.00      -0.27   -0.36   -0.19
#   9   -0.10   -0.53    0.25    0.00   -0.04    0.00    0.00      -0.43   -0.01   -0.24
#  10    0.67   -0.46    0.08   -0.49   -0.09    0.00    0.00      -0.28   -3.62   -0.66
#  11   -1.40   -0.14    0.00    0.50    0.03    0.00    0.00      -1.01    6.98    0.37
#  12   -2.11   -1.01    0.40    1.19    0.39    0.00    0.00      -1.13    6.30    2.05
#  13    1.01   -0.29    0.03   -0.25   -0.05    0.00    0.00       0.45   -1.66   -0.30
#  14   -0.46   -0.34    0.03    0.07   -0.05    0.00    0.00      -0.75    0.34   -0.27
#  15   -0.60   -1.00    0.30    0.12   -0.13    0.00    0.00      -1.31    0.40   -0.43
#  16   -0.51   -1.30    0.30    0.03   -0.16    0.00    0.00      -1.64    0.08   -0.47
#  17   -0.63   -1.57    0.32    0.00   -0.21    0.00    0.00      -2.09   -0.01   -0.47
#  18   -0.62   -2.07    0.75    0.18   -0.24    0.00    0.00      -2.00    0.36   -0.47
#  19   -0.65   -1.81    0.57    0.40   -0.17    0.00    0.00      -1.65    0.96   -0.40
#  20   -0.67   -1.16    0.43    0.30   -0.11    0.00    0.00      -1.21    0.93   -0.35
#  21   -0.63   -0.42    0.04    0.14   -0.03    0.00    0.00      -0.91    0.60   -0.15
#  22   -1.10   -0.44    0.03    0.23   -0.05    0.00    0.00      -1.34    0.90   -0.19
#  23   -1.49   -1.10    0.11    0.36   -0.12    0.00    0.00      -2.24    0.97   -0.32
#  24   -2.46   -2.20    0.55    0.31   -0.18    0.00    0.00      -3.98    0.64   -0.38
#  25   -2.61   -3.67    2.49    0.31   -0.26    0.00    0.00      -3.75    0.56   -0.47
#  26    0.50   -3.18    1.96   -0.15   -0.18    0.00    0.00      -1.05   -0.29   -0.33
#  27   -6.64   -2.48    0.79    2.37    0.34    0.00    0.00      -5.63    3.65    0.52
#  28    3.11   -1.95    0.52   -1.38    0.01    0.00    0.00       0.32   -2.21    0.02
#  29   -6.80   -1.79    0.42    3.69    0.23    0.00    0.00      -4.26    7.77    0.48
#  30    1.26   -1.98    0.70    0.15   -0.15    0.00    0.00      -0.02    0.34   -0.33
#  31   -2.38   -1.11    0.15    1.43   -0.14    0.00    0.00      -2.03    4.23   -0.40
#  32   13.15   -0.78    0.13   -4.11   -0.03    0.00    0.00       8.36  -16.68   -0.11
#  33   -8.94   -0.44    0.01    5.98   -0.09    0.00    0.00      -3.48   27.46   -0.42
#  34  -25.79   -2.38    4.00    6.57   -0.10    0.00    0.00     -17.70   24.74   -0.39
#  35    0.10   -0.02    0.00    0.08   -0.01    0.00    0.00       0.16    3.90   -0.28
#  36    0.07   -0.09    0.01    0.27   -0.02    0.00    0.00       0.24    3.29   -0.28
#  37    0.07   -0.01    0.00    0.02    0.00    0.00    0.00       0.07    1.22   -0.28
#  38    0.04   -0.03    0.00    0.04   -0.01    0.00    0.00       0.06    1.80   -0.28
#  39    0.12   -0.13    0.02    0.16   -0.03    0.00    0.00       0.14    1.33   -0.28
#  40    0.23   -0.04    0.00    0.02   -0.01    0.00    0.00       0.20    0.72   -0.28
#  41    0.04   -0.02    0.00    0.00   -0.01    0.00    0.00       0.02   -0.16   -0.28
#  42    0.03   -0.04    0.00    0.00   -0.01    0.00    0.00      -0.01    0.12   -0.28
#  43    0.05   -0.16    0.07    0.08   -0.03    0.00    0.00       0.02    0.68   -0.28
#  44    0.16   -0.46    0.66    0.00   -0.06    0.00    0.00       0.29   -0.02   -0.28
#  45    1.28   -0.06    0.01   -0.77    0.15    0.00    0.00       0.61   -3.02    0.58
#  46    0.83   -0.04    0.00   -0.04   -0.01    0.00    0.00       0.74   -0.83   -0.25
#  47    0.52   -0.09    0.00   -0.04   -0.03    0.00    0.00       0.37   -0.46   -0.28
#  48    0.20   -0.08    0.01   -0.04   -0.03    0.00    0.00       0.06   -0.39   -0.28
#  49    0.31   -0.27    0.07    0.06   -0.07    0.00    0.00       0.10    0.24   -0.28
#  50    0.56   -0.33    0.05    0.15   -0.10    0.00    0.00       0.33    0.42   -0.28
#  51    0.32   -0.54    0.21   -0.10   -0.14    0.00    0.00      -0.25   -0.21   -0.28
#  52    0.88   -0.56    0.37   -0.30   -0.10    0.00    0.00       0.29   -0.78   -0.27
#  53    1.01   -0.14    0.01   -0.06   -0.03    0.00    0.00       0.79   -0.42   -0.23
#  54    1.84   -0.09    0.00   -0.02   -0.02    0.00    0.00       1.71   -0.17   -0.25
#  55    1.49   -0.23    0.06   -0.27   -0.05    0.00    0.00       1.00   -1.44   -0.28
#  56    2.67   -0.55    0.22   -0.51   -0.13    0.00    0.00       1.72   -1.13   -0.28
#  57    2.23   -1.18    1.69   -0.59   -0.17    0.00    0.00       1.98   -0.97   -0.28
#  58    1.74   -0.63    0.17   -0.78   -0.17    0.00    0.00       0.34   -1.32   -0.28
#  59    0.36   -1.17    1.02   -0.57   -0.15    0.00    0.00      -0.50   -1.06   -0.28

@<TRIPOS>MOLECULE
       AVX17557_0       100
   59    62     0     0     0



@<TRIPOS>ATOM
      1 N1         11.7516   -24.5544   -28.4907 N.4        1          -0.6384
      2 H1         12.7284   -24.7662   -28.3539 H          1           0.4364
      3 H2         11.2132   -24.9457   -27.7324 H          1           0.4357
      4 H3         11.6242   -23.5537   -28.5122 H          1           0.4346
      5 C1         11.2984   -25.1330   -29.7626 C.3        1          -0.0099
      6 C2          9.8170   -24.8117   -29.9700 C.3        1          -0.1525
      7 C3          9.0006   -25.4053   -28.8201 C.3        1          -0.1194
      8 C4          7.5192   -25.0841   -29.0275 C.3        1          -0.1043
      9 C5          6.7027   -25.6776   -27.8776 C.3        1          -0.1438
     10 C6          7.1676   -25.0840   -26.5727 C.2        1           0.5137
     11 O1          7.6165   -23.9577   -26.5447 O.2        1          -0.5468
     12 N2          7.0843   -25.8048   -25.4370 N.am       1          -0.7103
     13 C7          7.5360   -25.2277   -24.1684 C.3        1           0.1501
     14 C8          6.4033   -25.2519   -23.1203 C.3        1          -0.0874
     15 C9          6.5808   -26.5575   -22.3753 C.ar       1          -0.0985
     16 C10         5.7009   -27.2546   -21.5641 C.ar       1          -0.1119
     17 C11         6.0881   -28.4449   -20.9804 C.ar       1          -0.1229
     18 C12         7.3580   -28.9429   -21.2062 C.ar       1          -0.1210
     19 C13         8.2367   -28.2493   -22.0148 C.ar       1          -0.0894
     20 C14         7.8502   -27.0555   -22.6009 C.ar       1          -0.0781
     21 C15         8.6127   -26.1185   -23.5131 C.3        1          -0.0588
     22 C16         9.5871   -25.2631   -22.7008 C.3        1          -0.0569
     23 C17        10.8470   -26.0476   -22.4398 C.ar       1          -0.0607
     24 C18        10.9488   -26.8325   -21.3127 C.ar       1          -0.1065
     25 C19        12.1033   -27.5572   -21.0654 C.ar       1          -0.1161
     26 C20        13.1686   -27.5011   -21.9480 C.ar       1           0.0197
     27 O2         14.3911   -28.1091   -21.9304 O.3        1          -0.3157
     28 C21        14.8903   -28.0053   -23.2772 C.3        1           0.2110
     29 O3         14.2454   -26.8246   -23.7904 O.3        1          -0.2995
     30 C22        13.0819   -26.7123   -23.0924 C.ar       1           0.0451
     31 C23        11.9119   -25.9834   -23.3453 C.ar       1          -0.0867
     32 C24        11.8060   -25.1506   -24.5542 C.2        1           0.5370
     33 O4         11.3594   -25.6276   -25.5883 O.co2      1          -0.6783
     34 O5         12.1646   -23.9813   -24.5247 O.co2      1          -0.6814
     35 H4         11.8800   -24.7103   -30.5818 H          1           0.1328
     36 H5         11.4359   -26.2142   -29.7392 H          1           0.1340
     37 H6          9.6793   -23.7308   -29.9931 H          1           0.0897
     38 H7          9.4807   -25.2411   -30.9138 H          1           0.0879
     39 H8          9.1381   -26.4863   -28.7969 H          1           0.0739
     40 H9          9.3368   -24.9760   -27.8763 H          1           0.0765
     41 H10         7.3816   -24.0030   -29.0507 H          1           0.0761
     42 H11         7.1829   -25.5135   -29.9713 H          1           0.0728
     43 H12         5.6473   -25.4487   -28.0254 H          1           0.0923
     44 H13         6.8403   -26.7586   -27.8546 H          1           0.0977
     45 H14         6.7252   -26.7056   -25.4594 H          1           0.4028
     46 H15         7.9092   -24.2144   -24.3168 H          1           0.1080
     47 H16         6.5031   -24.4093   -22.4360 H          1           0.0893
     48 H17         5.4313   -25.2268   -23.6132 H          1           0.0738
     49 H18         4.7090   -26.8660   -21.3870 H          1           0.1141
     50 H19         5.3998   -28.9859   -20.3481 H          1           0.1190
     51 H20         7.6626   -29.8734   -20.7503 H          1           0.1205
     52 H21         9.2284   -28.6390   -22.1907 H          1           0.1200
     53 H22         9.1495   -26.6851   -24.2740 H          1           0.1105
     54 H23         9.8308   -24.3598   -23.2600 H          1           0.0903
     55 H24         9.1262   -24.9894   -21.7517 H          1           0.0722
     56 H25        10.1239   -26.8830   -20.6174 H          1           0.1283
     57 H26        12.1729   -28.1694   -20.1785 H          1           0.1266
     58 H27        15.9730   -27.8805   -23.2758 H          1           0.1256
     59 H28        14.6054   -28.8812   -23.8598 H          1           0.0775
@<TRIPOS>BOND
     1    1    2 1
     2    1    3 1
     3    1    4 1
     4    1    5 1
     5    5    6 1
     6    5   35 1
     7    5   36 1
     8    6    7 1
     9    6   37 1
    10    6   38 1
    11    7    8 1
    12    7   39 1
    13    7   40 1
    14    8    9 1
    15    8   41 1
    16    8   42 1
    17    9   10 1
    18    9   43 1
    19    9   44 1
    20   10   11 2
    21   10   12 am
    22   12   13 1
    23   12   45 1
    24   13   21 1
    25   13   14 1
    26   13   46 1
    27   14   15 1
    28   14   47 1
    29   14   48 1
    30   15   20 ar
    31   15   16 ar
    32   16   17 ar
    33   16   49 1
    34   17   18 ar
    35   17   50 1
    36   18   19 ar
    37   18   51 1
    38   19   20 ar
    39   19   52 1
    40   20   21 1
    41   21   22 1
    42   21   53 1
    43   22   23 1
    44   22   54 1
    45   22   55 1
    46   23   31 ar
    47   23   24 ar
    48   24   25 ar
    49   24   56 1
    50   25   26 ar
    51   25   57 1
    52   26   30 ar
    53   26   27 1
    54   27   28 1
    55   28   29 1
    56   28   58 1
    57   28   59 1
    58   29   30 1
    59   30   31 ar
    60   31   32 1
    61   32   33 1
    62   32   34 2
