AVX17679_0, 3
##########                 Name:           AVX17679_0
##########          Protonation:                  100
##########               SMILES:   c1ccc2c(c1)c(no2)CC(=O)[O-]
##########            Long Name:   2-(1,2-benzoxazol-3-yl)acetate
##########          FlexRecCode: 1
##########               Number:                   13
##########   Ligand Source File: /raid1/people/rgc/Examples/sampl4/screening/ligands/build_1//sampl4-hivint-00000
##########           GlobalRank: 55
##########                 Rank:                    1
##########               Setnum:                    3
##########             Matchnum:                  696
##########                Cloud:                    1
##########        Electrostatic:           -48.400734
##########        Van der Waals:            -8.824494
##########  Ligand Polar Desolv:            20.169538
########## Ligand Apolar Desolv:            -1.683113
##########      Internal Energy:             0.000000
##########      Receptor Energy: 0.0
########## Receptor Desolvation:             0.000000
########## Receptor Hydrophobic:             0.000000
##########         Total Energy: -38.74
##########        Ligand Charge:            -1.000000
##########            Arbitrary:    +999.9990
##########     heavy atom count:   13
##########           pose count:    1
##########        Ligand Energy:             0.000000
# num electro vdwattr vdwrepu polsolv apolsol rdesolv rhydroe totalscore fullpol fullapo
#   1  -36.86   -3.55    4.52   12.21   -0.17    0.00    0.00     -23.85   28.74   -0.41
#   2   22.00   -2.16    1.89   -5.55   -0.06    0.00    0.00      16.13  -16.02   -0.16
#   3  -29.42   -2.15    1.52   10.52   -0.16    0.00    0.00     -19.69   28.18   -0.43
#   4   -3.08   -0.42    0.05    0.48   -0.06    0.00    0.00      -3.02    2.29   -0.28
#   5    3.60   -0.52    0.02   -0.73   -0.14    0.00    0.00       2.23   -3.54   -0.66
#   6   -5.04   -0.57    0.03    2.19    0.27    0.00    0.00      -3.12    9.82    1.20
#   7   -1.42   -0.70    0.07    0.72   -0.02    0.00    0.00      -1.35    2.91   -0.09
#   8    1.05   -0.89    0.11   -0.08   -0.10    0.00    0.00       0.09   -0.30   -0.35
#   9   -1.25   -1.28    0.19    0.52   -0.17    0.00    0.00      -1.98    1.46   -0.48
#  10   -0.59   -1.48    0.38    0.00   -0.19    0.00    0.00      -1.88   -0.01   -0.47
#  11   -1.33   -1.71    0.48    0.38   -0.19    0.00    0.00      -2.38    0.94   -0.47
#  12   -0.38   -1.08    0.13    0.45   -0.16    0.00    0.00      -1.04    1.30   -0.47
#  13   -2.72   -0.66    0.03    1.34   -0.11    0.00    0.00      -2.12    5.30   -0.44
#  14    1.71   -0.13    0.03   -0.41   -0.03    0.00    0.00       1.16   -3.46   -0.28
#  15    1.55   -0.08    0.00   -0.22   -0.02    0.00    0.00       1.23   -2.84   -0.28
#  16    0.72   -0.45    0.24   -0.52   -0.09    0.00    0.00      -0.10   -1.63   -0.28
#  17    0.85   -0.31    0.06   -0.16   -0.09    0.00    0.00       0.36   -0.53   -0.28
#  18    0.62   -0.58    0.33   -0.47   -0.12    0.00    0.00      -0.22   -1.09   -0.28
#  19    1.59   -0.26    0.05   -0.49   -0.07    0.00    0.00       0.82   -2.06   -0.28

@<TRIPOS>MOLECULE
       AVX17679_0       100
   19    20     0     0     0



@<TRIPOS>ATOM
      1 O1         12.2925   -23.4245   -22.5475 O.co2      1          -0.6817
      2 C1         12.1432   -24.3590   -23.3162 C.2        1           0.5039
      3 O2         13.0004   -25.2219   -23.4006 O.co2      1          -0.6890
      4 C2         10.8963   -24.4508   -24.1576 C.3        1          -0.1314
      5 C3          9.6883   -24.5217   -23.2593 C.2        1           0.1871
      6 N1          9.0000   -23.5148   -22.8171 N.2        1          -0.2984
      7 O3          7.9419   -23.9802   -22.0035 O.3        1          -0.1093
      8 C4          7.9832   -25.3264   -21.9446 C.ar       1           0.0811
      9 C5          7.2013   -26.2796   -21.3029 C.ar       1          -0.1335
     10 C6          7.5040   -27.6172   -21.4378 C.ar       1          -0.0710
     11 C7          8.5838   -28.0229   -22.2096 C.ar       1          -0.1600
     12 C8          9.3648   -27.1018   -22.8485 C.ar       1          -0.0310
     13 C9          9.0713   -25.7412   -22.7298 C.ar       1          -0.1770
     14 H1         10.8231   -23.5705   -24.7961 H          1           0.0919
     15 H2         10.9413   -25.3465   -24.7771 H          1           0.0902
     16 H3          6.3593   -25.9729   -20.7001 H          1           0.1330
     17 H4          6.8955   -28.3565   -20.9382 H          1           0.1337
     18 H5          8.8087   -29.0748   -22.3055 H          1           0.1297
     19 H6         10.2034   -27.4248   -23.4473 H          1           0.1317
@<TRIPOS>BOND
     1    1    2 1
     2    2    3 2
     3    2    4 1
     4    4    5 1
     5    4   14 1
     6    4   15 1
     7    5   13 1
     8    5    6 2
     9    6    7 1
    10    7    8 1
    11    8   13 ar
    12    8    9 ar
    13    9   10 ar
    14    9   16 1
    15   10   11 ar
    16   10   17 1
    17   11   12 ar
    18   11   18 1
    19   12   13 ar
    20   12   19 1
