AVX17560_0, 3
##########                 Name:           AVX17560_0
##########          Protonation:                  100
##########               SMILES:   CC(C)C[C@H](Cc1ccc2c(c1C(=O)[O-])OCO2)CNC(=O)CCC[NH3+]
##########            Long Name:   aniumylbutanoylamino)methyl]-4-methyl-pentyl]-1,3-benzodioxole-4-carboxylate
##########          FlexRecCode: 1
##########               Number:                  198
##########   Ligand Source File: /raid1/people/rgc/Examples/sampl4/screening/ligands/build_1//sampl4-hivint-00000
##########           GlobalRank: 134
##########                 Rank:                    1
##########               Setnum:                    2
##########             Matchnum:                29042
##########                Cloud:                    1
##########        Electrostatic:           -17.601696
##########        Van der Waals:           -15.103471
##########  Ligand Polar Desolv:            12.559493
########## Ligand Apolar Desolv:            -1.259898
##########      Internal Energy:             0.000000
##########      Receptor Energy: 0.0
########## Receptor Desolvation:             0.000000
########## Receptor Hydrophobic:             0.000000
##########         Total Energy: -21.41
##########        Ligand Charge:             0.000000
##########            Arbitrary:    +999.9990
##########     heavy atom count:   26
##########           pose count:    1
##########        Ligand Energy:             0.000000
# num electro vdwattr vdwrepu polsolv apolsol rdesolv rhydroe totalscore fullpol fullapo
#   1   -0.11   -0.39    0.10    0.09   -0.03    0.00    0.00      -0.33    0.58   -0.17
#   2   -0.14   -0.30    0.02    0.00   -0.02    0.00    0.00      -0.44    0.02   -0.14
#   3   -0.14   -0.46    0.07   -0.07   -0.04    0.00    0.00      -0.64   -0.36   -0.18
#   4   -0.31   -0.47    0.05    0.08   -0.04    0.00    0.00      -0.69    0.35   -0.17
#   5   -0.47   -0.36    0.03    0.17   -0.02    0.00    0.00      -0.66    0.87   -0.12
#   6    0.19   -0.41    0.05   -0.19   -0.07    0.00    0.00      -0.43   -1.05   -0.37
#   7   -1.27   -0.55    0.03    0.35    0.31    0.00    0.00      -1.13    1.72    1.52
#   8    0.63   -0.23    0.00    0.05   -0.05    0.00    0.00       0.40    0.57   -0.66
#   9   -0.58   -0.09    0.00    0.08    0.02    0.00    0.00      -0.58    1.98    0.38
#  10   -0.20   -0.20    0.01   -0.18   -0.03    0.00    0.00      -0.61   -1.55   -0.24
#  11   -0.15   -0.09    0.00   -0.11   -0.01    0.00    0.00      -0.35   -2.42   -0.20
#  12   -0.01   -0.06    0.00    0.03   -0.02    0.00    0.00      -0.05    0.96   -0.49
#  13   -1.10   -0.19    0.01   -1.97    0.09    0.00    0.00      -3.17  -19.32    0.86
#  14    0.77   -0.01    0.00    1.14    0.04    0.00    0.00       1.95   14.76    0.58
#  15    2.40    0.00    0.00    0.83    0.03    0.00    0.00       3.25   14.27    0.58
#  16    0.85    0.00    0.00    0.63    0.02    0.00    0.00       1.50   16.23    0.60
#  17   -0.64   -0.81    0.16    0.26   -0.05    0.00    0.00      -1.09    0.89   -0.18
#  18   -0.84   -0.80    0.09    0.22   -0.09    0.00    0.00      -1.43    0.82   -0.32
#  19   -1.34   -1.00    0.11    0.15   -0.14    0.00    0.00      -2.21    0.43   -0.39
#  20   -1.29   -1.36    0.25    0.18   -0.18    0.00    0.00      -2.40    0.47   -0.47
#  21    0.28   -1.04    0.13   -0.05   -0.11    0.00    0.00      -0.79   -0.14   -0.33
#  22   -4.24   -1.58    0.55    1.25    0.18    0.00    0.00      -3.84    3.56    0.52
#  23    3.15   -0.56    0.04   -0.65    0.01    0.00    0.00       2.00   -2.16    0.02
#  24   -7.01   -0.54    0.04    1.80    0.11    0.00    0.00      -5.59    7.72    0.48
#  25    0.92   -0.58    0.02    0.11   -0.08    0.00    0.00       0.39    0.45   -0.33
#  26   -1.57   -0.57    0.03    0.85   -0.08    0.00    0.00      -1.34    4.04   -0.40
#  27    9.70   -0.57    0.03   -3.74   -0.03    0.00    0.00       5.39  -15.94   -0.13
#  28   -7.05   -0.26    0.00    3.56   -0.05    0.00    0.00      -3.79   27.51   -0.42
#  29  -17.70   -1.09    0.13    8.31   -0.14    0.00    0.00     -10.49   23.05   -0.39
#  30    0.05   -0.05    0.00    0.00   -0.01    0.00    0.00       0.00    0.07   -0.28
#  31    0.06   -0.38    0.40   -0.02   -0.04    0.00    0.00       0.03   -0.13   -0.19
#  32    0.04   -0.09    0.01   -0.01   -0.02    0.00    0.00      -0.07   -0.10   -0.28
#  33    0.05   -0.05    0.00    0.01   -0.01    0.00    0.00       0.00    0.25   -0.18
#  34    0.05   -0.13    0.02    0.01   -0.04    0.00    0.00      -0.09    0.04   -0.28
#  35    0.02   -0.10    0.01    0.02   -0.03    0.00    0.00      -0.07    0.26   -0.28
#  36    0.08   -0.36    0.24    0.08   -0.06    0.00    0.00      -0.02    0.36   -0.28
#  37    0.07   -0.32    0.15   -0.01   -0.06    0.00    0.00      -0.16   -0.04   -0.28
#  38    0.31   -0.18    0.05   -0.03   -0.03    0.00    0.00       0.12   -0.20   -0.22
#  39    0.53   -0.05    0.00   -0.02   -0.01    0.00    0.00       0.45   -0.52   -0.17
#  40    0.04   -0.05    0.00   -0.02   -0.01    0.00    0.00      -0.04   -0.46   -0.28
#  41    0.03   -0.38    0.26   -0.01   -0.06    0.00    0.00      -0.16   -0.04   -0.28
#  42    0.98   -0.02    0.00   -0.10    0.06    0.00    0.00       0.93   -0.50    0.31
#  43    0.15   -0.08    0.00    0.11   -0.02    0.00    0.00       0.16    1.51   -0.28
#  44    0.31   -0.10    0.01    0.22   -0.03    0.00    0.00       0.41    2.38   -0.28
#  45    0.08   -0.01    0.00    0.02    0.00    0.00    0.00       0.09    1.38   -0.28
#  46    0.10   -0.03    0.00    0.02   -0.01    0.00    0.00       0.09    0.83   -0.28
#  47    0.14   -0.01    0.00    0.07    0.00    0.00    0.00       0.19    3.84   -0.28
#  48    0.14   -0.01    0.00    0.06    0.00    0.00    0.00       0.19    4.55   -0.28
#  49    1.05   -0.31    0.08    0.03   -0.06    0.00    0.00       0.78    0.12   -0.25
#  50    0.59   -0.52    0.28   -0.33   -0.09    0.00    0.00      -0.06   -0.99   -0.28
#  51    1.19   -0.22    0.03   -0.08   -0.07    0.00    0.00       0.85   -0.31   -0.28
#  52    0.91   -0.51    0.24   -0.22   -0.10    0.00    0.00       0.31   -0.60   -0.28
#  53    1.98   -0.20    0.01   -0.28   -0.06    0.00    0.00       1.45   -1.26   -0.28
#  54    0.70   -0.13    0.01   -0.14   -0.04    0.00    0.00       0.40   -1.01   -0.28

@<TRIPOS>MOLECULE
       AVX17560_0       100
   54    55     0     0     0



@<TRIPOS>ATOM
      1 C1          4.5433   -25.1973   -24.7934 C.3        1          -0.1613
      2 C2          4.0258   -25.4328   -23.3730 C.3        1          -0.1130
      3 C3          3.1603   -26.6942   -23.3481 C.3        1          -0.1450
      4 C4          5.2107   -25.6084   -22.4210 C.3        1          -0.1128
      5 C5          6.0763   -24.3470   -22.4459 C.3        1          -0.1069
      6 C6          5.2394   -23.1454   -22.0022 C.3        1           0.1250
      7 N1          6.0683   -21.9376   -22.0261 N.am       1          -0.7137
      8 C7          6.1377   -21.1901   -23.1454 C.2        1           0.5039
      9 O1          5.5141   -21.5171   -24.1328 O.2        1          -0.5489
     10 C8          6.9904   -19.9476   -23.1698 C.3        1          -0.1437
     11 C9          6.8937   -19.2898   -24.5478 C.3        1          -0.1365
     12 C10         7.3870   -20.2681   -25.6157 C.3        1          -0.0099
     13 N2          8.7847   -20.6280   -25.3419 N.4        1          -0.6368
     14 H1          9.3555   -19.7960   -25.3585 H          1           0.4355
     15 H2          8.8485   -21.0616   -24.4333 H          1           0.4365
     16 H3          9.1100   -21.2730   -26.0462 H          1           0.4369
     17 C11         7.2611   -24.5227   -21.4939 C.3        1          -0.0633
     18 C12         8.3282   -25.3472   -22.1668 C.ar       1          -0.0597
     19 C13         8.3172   -26.7189   -22.0461 C.ar       1          -0.1147
     20 C14         9.2941   -27.4844   -22.6619 C.ar       1          -0.1164
     21 C15        10.2930   -26.8796   -23.4057 C.ar       1           0.0192
     22 O2         11.3489   -27.4018   -24.0964 O.3        1          -0.3156
     23 C16        11.7809   -26.3547   -24.9854 C.3        1           0.2107
     24 O3         11.3862   -25.1469   -24.3082 O.3        1          -0.2987
     25 C17        10.3184   -25.4935   -23.5378 C.ar       1           0.0472
     26 C18         9.3272   -24.7196   -22.9194 C.ar       1          -0.0869
     27 C19         9.3400   -23.2542   -23.0562 C.2        1           0.5359
     28 O4          8.7402   -22.7209   -23.9796 O.co2      1          -0.6766
     29 O5          9.9504   -22.5695   -22.2467 O.co2      1          -0.6815
     30 H4          5.1600   -24.2986   -24.8111 H          1           0.0488
     31 H5          5.1395   -26.0533   -25.1093 H          1           0.0670
     32 H6          3.6993   -25.0722   -25.4715 H          1           0.0622
     33 H7          3.4296   -24.5768   -23.0569 H          1           0.0758
     34 H8          2.7916   -26.8619   -22.3361 H          1           0.0561
     35 H9          2.3162   -26.5690   -24.0262 H          1           0.0507
     36 H10         3.7565   -27.5502   -23.6641 H          1           0.0486
     37 H11         4.8421   -25.7762   -21.4091 H          1           0.0596
     38 H12         5.8069   -26.4644   -22.7371 H          1           0.0747
     39 H13         6.4450   -24.1793   -23.4578 H          1           0.1111
     40 H14         4.3954   -23.0202   -22.6804 H          1           0.0714
     41 H15         4.8707   -23.3131   -20.9904 H          1           0.0717
     42 H16         6.5668   -21.6760   -21.2363 H          1           0.4087
     43 H17         6.6389   -19.2507   -22.4091 H          1           0.1053
     44 H18         8.0275   -20.2146   -22.9666 H          1           0.1029
     45 H19         5.8566   -19.0228   -24.7509 H          1           0.0954
     46 H20         7.5104   -18.3911   -24.5655 H          1           0.0966
     47 H21         6.7702   -21.1668   -25.5979 H          1           0.1355
     48 H22         7.3179   -19.7995   -26.5973 H          1           0.1344
     49 H23         7.6670   -23.5448   -21.2348 H          1           0.0833
     50 H24         6.9276   -25.0293   -20.5883 H          1           0.0708
     51 H25         7.5429   -27.2009   -21.4677 H          1           0.1299
     52 H26         9.2766   -28.5595   -22.5606 H          1           0.1268
     53 H27        12.8626   -26.3848   -25.1158 H          1           0.1264
     54 H28        11.2757   -26.4368   -25.9479 H          1           0.0777
@<TRIPOS>BOND
     1    1    2 1
     2    1   30 1
     3    1   31 1
     4    1   32 1
     5    2    3 1
     6    2    4 1
     7    2   33 1
     8    3   34 1
     9    3   35 1
    10    3   36 1
    11    4    5 1
    12    4   37 1
    13    4   38 1
    14    5    6 1
    15    5   17 1
    16    5   39 1
    17    6    7 1
    18    6   40 1
    19    6   41 1
    20    7    8 am
    21    7   42 1
    22    8    9 2
    23    8   10 1
    24   10   11 1
    25   10   43 1
    26   10   44 1
    27   11   12 1
    28   11   45 1
    29   11   46 1
    30   12   13 1
    31   12   47 1
    32   12   48 1
    33   13   14 1
    34   13   15 1
    35   13   16 1
    36   17   18 1
    37   17   49 1
    38   17   50 1
    39   18   26 ar
    40   18   19 ar
    41   19   20 ar
    42   19   51 1
    43   20   21 ar
    44   20   52 1
    45   21   25 ar
    46   21   22 1
    47   22   23 1
    48   23   24 1
    49   23   53 1
    50   23   54 1
    51   24   25 1
    52   25   26 ar
    53   26   27 1
    54   27   28 1
    55   27   29 2
