AVX16980_0, 3
##########                 Name:           AVX16980_0
##########          Protonation:                  100
##########               SMILES:   c1ccc2c(c1)/C(=C/c3cccc(c3)C(=O)[O-])/C(=[NH+]2)[O-]
##########            Long Name:   3-[(Z)-(2-oxidoindol-1-ium-3-ylidene)methyl]benzoate
##########          FlexRecCode: 1
##########               Number:                  328
##########   Ligand Source File: /raid1/people/rgc/Examples/sampl4/screening/ligands/build_1//sampl4-hivint-00000
##########           GlobalRank: 84
##########                 Rank:                    1
##########               Setnum:                    2
##########             Matchnum:                13311
##########                Cloud:                    1
##########        Electrostatic:           -34.492290
##########        Van der Waals:           -18.105112
##########  Ligand Polar Desolv:            19.447268
########## Ligand Apolar Desolv:            -2.679468
##########      Internal Energy:             0.000000
##########      Receptor Energy: 0.0
########## Receptor Desolvation:             0.000000
########## Receptor Hydrophobic:             0.000000
##########         Total Energy: -35.83
##########        Ligand Charge:            -1.000000
##########            Arbitrary:    +999.9990
##########     heavy atom count:   20
##########           pose count:    1
##########        Ligand Energy:             0.000000
# num electro vdwattr vdwrepu polsolv apolsol rdesolv rhydroe totalscore fullpol fullapo
#   1  -18.13   -0.94    0.08   11.10   -0.14    0.00    0.00      -8.03   30.79   -0.40
#   2   16.19   -1.08    0.17   -6.11   -0.05    0.00    0.00       9.11  -18.38   -0.16
#   3  -29.96   -1.76    0.78   11.42   -0.15    0.00    0.00     -19.68   30.23   -0.40
#   4   -3.42   -0.94    0.15    1.97   -0.12    0.00    0.00      -2.36    6.82   -0.41
#   5   -0.72   -0.90    0.09    0.52   -0.13    0.00    0.00      -1.14    1.66   -0.43
#   6   -1.50   -1.00    0.11    0.53   -0.12    0.00    0.00      -1.98    1.68   -0.38
#   7    0.50   -1.21    0.20   -0.07   -0.16    0.00    0.00      -0.75   -0.20   -0.45
#   8   -0.81   -1.39    0.93    0.57   -0.13    0.00    0.00      -0.83    1.88   -0.42
#   9    1.58   -1.10    0.59   -1.63   -0.14    0.00    0.00      -0.70   -7.34   -0.64
#  10   -1.48   -0.44    0.05    1.67    0.06    0.00    0.00      -0.14    9.94    0.34
#  11   -1.02   -1.36    0.77    1.34    0.41    0.00    0.00       0.14    6.02    1.86
#  12    0.29   -0.01    0.00   -0.47    0.09    0.00    0.00      -0.09   -3.00    0.59
#  13    0.25   -1.46    0.88   -0.22   -0.21    0.00    0.00      -0.76   -0.80   -0.77
#  14   -0.10   -1.17    0.19    0.16   -0.15    0.00    0.00      -1.07    0.51   -0.48
#  15   -0.05   -1.26    0.22    0.03   -0.16    0.00    0.00      -1.21    0.08   -0.47
#  16   -0.18   -1.25    0.16    0.16   -0.20    0.00    0.00      -1.31    0.37   -0.47
#  17   -0.18   -1.44    0.35    0.18   -0.20    0.00    0.00      -1.30    0.43   -0.48
#  18   -0.27   -1.59    1.17    0.47   -0.14    0.00    0.00      -0.36    1.51   -0.44
#  19   -0.45   -1.32    0.30    0.14   -0.10    0.00    0.00      -1.43    0.47   -0.32
#  20   -2.00   -1.37    0.39    0.65   -0.14    0.00    0.00      -2.47    2.24   -0.47
#  21   -1.21   -1.18    0.28    0.68   -0.14    0.00    0.00      -1.57    2.20   -0.45
#  22    1.80   -0.18    0.01   -0.62   -0.06    0.00    0.00       0.95   -2.95   -0.27
#  23    1.10   -0.33    0.10   -0.66   -0.09    0.00    0.00       0.12   -2.08   -0.28
#  24    0.03   -0.21    0.02   -0.07   -0.06    0.00    0.00      -0.30   -0.32   -0.28
#  25   -0.04   -0.39    0.23    0.03   -0.06    0.00    0.00      -0.23    0.13   -0.28
#  26    0.15   -0.30    0.05   -0.04   -0.09    0.00    0.00      -0.23   -0.12   -0.28
#  27    0.48   -0.30    0.04   -0.26   -0.10    0.00    0.00      -0.14   -0.72   -0.28
#  28    0.37   -0.41    0.32   -0.57   -0.05    0.00    0.00      -0.35   -2.47   -0.22
#  29    1.04   -0.25    0.03   -0.66   -0.07    0.00    0.00       0.10   -2.83   -0.28
#  30    3.25   -0.22    0.02   -0.78   -0.08    0.00    0.00       2.20   -2.78   -0.27

@<TRIPOS>MOLECULE
       AVX16980_0       100
   30    32     0     0     0



@<TRIPOS>ATOM
      1 O1         11.5799   -26.0926   -22.9951 O.co2      1          -0.6868
      2 C1         11.1248   -24.9859   -22.7431 C.2        1           0.5219
      3 O2         11.8246   -23.9920   -22.8765 O.co2      1          -0.6880
      4 C2          9.7292   -24.8492   -22.2836 C.ar       1          -0.1502
      5 C3          8.9319   -25.9815   -22.1254 C.ar       1          -0.0452
      6 C4          7.6119   -25.8420   -21.6894 C.ar       1          -0.1354
      7 C5          6.7631   -27.0280   -21.5188 C.2        1           0.0710
      8 C6          5.6109   -27.1505   -22.2365 C.2        1          -0.1974
      9 C7          5.1499   -26.2935   -23.3440 C.2        1           0.5562
     10 O3          5.7359   -25.3275   -23.7969 O.3        1          -0.4794
     11 N1          3.9482   -26.7792   -23.7698 N.pl3      1          -0.6677
     12 H1          3.4261   -26.3967   -24.4924 H          1           0.4138
     13 C8          3.5707   -27.8953   -23.0313 C.ar       1           0.1486
     14 C9          2.4459   -28.7105   -23.1034 C.ar       1          -0.1442
     15 C10         2.3060   -29.7766   -22.2385 C.ar       1          -0.0893
     16 C11         3.2790   -30.0484   -21.2912 C.ar       1          -0.1450
     17 C12         4.4020   -29.2507   -21.2045 C.ar       1          -0.0674
     18 C13         4.5555   -28.1768   -22.0760 C.ar       1          -0.0942
     19 C14         7.1007   -24.5662   -21.4151 C.ar       1          -0.0489
     20 C15         7.8978   -23.4516   -21.5752 C.ar       1          -0.1511
     21 C16         9.2055   -23.5837   -22.0004 C.ar       1          -0.0568
     22 H2          9.3324   -26.9615   -22.3390 H          1           0.1304
     23 H3          7.0517   -27.8034   -20.8246 H          1           0.1421
     24 H4          1.6802   -28.5082   -23.8377 H          1           0.1238
     25 H5          1.4295   -30.4046   -22.3005 H          1           0.1272
     26 H6          3.1587   -30.8852   -20.6192 H          1           0.1270
     27 H7          5.1608   -29.4616   -20.4656 H          1           0.1282
     28 H8          6.0807   -24.4553   -21.0779 H          1           0.1128
     29 H9          7.4986   -22.4708   -21.3630 H          1           0.1164
     30 H10         9.8242   -22.7064   -22.1186 H          1           0.1277
@<TRIPOS>BOND
     1    1    2 1
     2    2    3 2
     3    2    4 1
     4    4   21 ar
     5    4    5 ar
     6    5    6 ar
     7    5   22 1
     8    6    7 1
     9    6   19 ar
    10    7    8 2
    11    7   23 1
    12    8   18 1
    13    8    9 1
    14    9   10 1
    15    9   11 2
    16   11   12 1
    17   11   13 1
    18   13   18 ar
    19   13   14 ar
    20   14   15 ar
    21   14   24 1
    22   15   16 ar
    23   15   25 1
    24   16   17 ar
    25   16   26 1
    26   17   18 ar
    27   17   27 1
    28   19   20 ar
    29   19   28 1
    30   20   21 ar
    31   20   29 1
    32   21   30 1
