AVX17558_3, 3
##########                 Name:           AVX17558_0
##########          Protonation:                  100
##########               SMILES:   c1ccc2c(c1)C[C@H]([C@@H]2Cc3ccc4c(c3C(=O)[O-])OCO4)NC(=O)CCC[NH3+]
##########            Long Name:   -(4-azaniumylbutanoylamino)indan-1-yl]methyl]-1,3-benzodioxole-4-carboxylate
##########          FlexRecCode: 1
##########               Number:                   66
##########   Ligand Source File: /raid1/people/rgc/Examples/sampl4/screening/ligands/build_1//sampl4-hivint-00000
##########           GlobalRank: 94
##########                 Rank:                    1
##########               Setnum:                    2
##########             Matchnum:                18383
##########                Cloud:                    1
##########        Electrostatic:           -36.849358
##########        Van der Waals:           -13.762169
##########  Ligand Polar Desolv:            20.517542
########## Ligand Apolar Desolv:            -4.177596
##########      Internal Energy:             0.000000
##########      Receptor Energy: 0.0
########## Receptor Desolvation:             0.000000
########## Receptor Hydrophobic:             0.000000
##########         Total Energy: -34.27
##########        Ligand Charge:             0.000000
##########            Arbitrary:    +999.9990
##########     heavy atom count:   29
##########           pose count:    1
##########        Ligand Energy:             0.000000
# num electro vdwattr vdwrepu polsolv apolsol rdesolv rhydroe totalscore fullpol fullapo
#   1   -3.75   -0.15    0.00   -1.45    0.06    0.00    0.00      -5.28  -19.39    0.86
#   2    3.56    0.00    0.00    0.58    0.02    0.00    0.00       4.16   14.97    0.58
#   3    1.41    0.00    0.00    0.35    0.01    0.00    0.00       1.77   14.73    0.58
#   4    2.36    0.00    0.00    0.70    0.03    0.00    0.00       3.08   16.16    0.60
#   5   -0.07   -0.16    0.01    0.08   -0.05    0.00    0.00      -0.19    0.78   -0.49
#   6   -0.83   -0.16    0.00   -0.22   -0.02    0.00    0.00      -1.23   -2.39   -0.20
#   7   -0.86   -0.21    0.01   -0.19   -0.03    0.00    0.00      -1.29   -1.53   -0.24
#   8    6.21   -0.51    0.03    0.31   -0.14    0.00    0.00       5.89    1.49   -0.66
#   9   -7.35   -0.65    0.11   -0.11    0.08    0.00    0.00      -7.92   -0.47    0.37
#  10  -11.42   -0.71    0.03    0.36    0.54    0.00    0.00     -11.19    1.32    1.96
#  11    3.81   -0.80    0.11   -0.33   -0.08    0.00    0.00       2.70   -0.90   -0.23
#  12   -1.35   -1.55    0.89    0.10   -0.12    0.00    0.00      -2.02    0.24   -0.27
#  13   -1.85   -2.75    0.92    0.43   -0.24    0.00    0.00      -3.50    0.76   -0.43
#  14   -1.22   -4.40    2.97    0.32   -0.31    0.00    0.00      -2.64    0.49   -0.47
#  15   -1.67   -4.09    2.06    0.46   -0.34    0.00    0.00      -3.58    0.64   -0.47
#  16   -1.94   -3.35    1.22    0.94   -0.35    0.00    0.00      -3.47    1.27   -0.47
#  17   -1.72   -3.64    2.45    1.30   -0.30    0.00    0.00      -1.92    1.97   -0.45
#  18   -1.48   -2.95    1.73    0.79   -0.22    0.00    0.00      -2.12    1.43   -0.39
#  19   -0.81   -1.32    0.44    0.11   -0.06    0.00    0.00      -1.64    0.25   -0.13
#  20   -2.19   -1.84    1.06    0.41   -0.08    0.00    0.00      -2.65    0.86   -0.17
#  21   -0.73   -1.46    0.27    0.10   -0.12    0.00    0.00      -1.94    0.25   -0.31
#  22   -1.98   -1.40    0.24    0.18   -0.19    0.00    0.00      -3.15    0.44   -0.45
#  23   -1.16   -1.02    0.12   -0.02   -0.16    0.00    0.00      -2.25   -0.07   -0.47
#  24   -0.09   -0.78    0.06   -0.05   -0.09    0.00    0.00      -0.95   -0.18   -0.33
#  25   -1.92   -0.54    0.03    0.23    0.13    0.00    0.00      -2.08    0.94    0.52
#  26    1.23   -0.56    0.07   -0.17    0.00    0.00    0.00       0.57   -0.71    0.02
#  27   -3.31   -0.66    0.05    1.33    0.08    0.00    0.00      -2.51    5.48    0.34
#  28    1.30   -1.02    0.24   -0.12   -0.08    0.00    0.00       0.31   -0.45   -0.32
#  29   -3.24   -1.53    0.69    1.23   -0.14    0.00    0.00      -2.99    3.51   -0.41
#  30   19.78   -2.05    0.60   -5.82   -0.07    0.00    0.00      12.44  -13.36   -0.16
#  31  -30.04   -4.38    3.03   10.97   -0.15    0.00    0.00     -20.57   20.69   -0.29
#  32  -27.52   -1.83    0.90    9.96   -0.22    0.00    0.00     -18.71   25.03   -0.56
#  33    0.45   -0.04    0.00    0.15   -0.01    0.00    0.00       0.55    3.53   -0.28
#  34    1.76   -0.10    0.01    0.41   -0.03    0.00    0.00       2.06    4.06   -0.28
#  35    0.74   -0.06    0.00    0.09   -0.02    0.00    0.00       0.76    1.59   -0.28
#  36    0.33   -0.04    0.00    0.04   -0.01    0.00    0.00       0.33    1.33   -0.28
#  37    0.45   -0.11    0.01    0.11   -0.03    0.00    0.00       0.43    1.03   -0.28
#  38    0.39   -0.04    0.00    0.06   -0.01    0.00    0.00       0.40    1.72   -0.28
#  39    5.16   -0.01    0.00   -0.19    0.08    0.00    0.00       5.04   -1.42    0.57
#  40    4.35   -0.38    0.19   -0.14   -0.07    0.00    0.00       3.95   -0.47   -0.25
#  41    0.48   -0.63    0.44   -0.09   -0.10    0.00    0.00       0.09   -0.25   -0.28
#  42    1.17   -0.68    1.22   -0.05   -0.10    0.00    0.00       1.57   -0.14   -0.28
#  43    0.29   -2.27    8.10   -0.07   -0.17    0.00    0.00       5.87   -0.12   -0.28
#  44    1.41   -1.51    2.35   -0.20   -0.20    0.00    0.00       1.85   -0.29   -0.28
#  45    1.72   -1.06    1.87   -0.71   -0.19    0.00    0.00       1.63   -1.05   -0.28
#  46    2.40   -0.92    0.76   -0.81   -0.16    0.00    0.00       1.26   -1.38   -0.27
#  47    1.76   -0.68    0.71   -0.17   -0.07    0.00    0.00       1.56   -0.57   -0.22
#  48    3.45   -0.74    0.34   -0.36   -0.11    0.00    0.00       2.59   -0.69   -0.20
#  49    2.60   -1.70    7.94   -0.36   -0.11    0.00    0.00       8.37   -0.91   -0.27
#  50    1.51   -0.56    0.43   -0.11   -0.11    0.00    0.00       1.16   -0.29   -0.28
#  51    0.88   -0.25    0.07    0.17   -0.06    0.00    0.00       0.81    0.73   -0.28
#  52    0.38   -0.08    0.00   -0.01   -0.02    0.00    0.00       0.27   -0.15   -0.28
#  53    0.34   -0.45    0.22    0.02   -0.08    0.00    0.00       0.04    0.06   -0.28

@<TRIPOS>MOLECULE
       AVX17558_0       100
   53    56     0     0     0



@<TRIPOS>ATOM
      1 N1          8.4988   -22.7228   -25.1412 N.4        1          -0.6365
      2 H1          8.2545   -23.3023   -24.3520 H          1           0.4351
      3 H2          7.7219   -22.6854   -25.7839 H          1           0.4363
      4 H3          8.7146   -21.7908   -24.8200 H          1           0.4368
      5 C1          9.6706   -23.2902   -25.8214 C.3        1          -0.0108
      6 C2          9.3430   -24.7032   -26.3082 C.3        1          -0.1345
      7 C3         10.5636   -25.2942   -27.0168 C.3        1          -0.1442
      8 C4         11.7236   -25.3501   -26.0566 C.2        1           0.5178
      9 O1         12.7458   -24.7466   -26.3047 O.2        1          -0.5471
     10 N2         11.6251   -26.0708   -24.9219 N.am       1          -0.7039
     11 C5         12.7529   -26.1251   -23.9884 C.3        1           0.1454
     12 C6         13.9761   -26.7999   -24.6444 C.3        1          -0.0861
     13 C7         14.6450   -27.5764   -23.5304 C.ar       1          -0.1082
     14 C8         15.9227   -28.1042   -23.4459 C.ar       1          -0.1114
     15 C9         16.3195   -28.7859   -22.3124 C.ar       1          -0.1255
     16 C10        15.4391   -28.9425   -21.2579 C.ar       1          -0.1206
     17 C11        14.1648   -28.4170   -21.3402 C.ar       1          -0.0879
     18 C12        13.7649   -27.7330   -22.4763 C.ar       1          -0.0663
     19 C13        12.4443   -27.0725   -22.8098 C.3        1          -0.0339
     20 C14        11.9309   -26.2759   -21.6086 C.3        1          -0.0677
     21 C15        10.4598   -25.9986   -21.7815 C.ar       1          -0.0295
     22 C16         9.5694   -27.0439   -21.8865 C.ar       1          -0.1289
     23 C17         8.2153   -26.7977   -22.0452 C.ar       1          -0.1047
     24 C18         7.7409   -25.4981   -22.1002 C.ar       1          -0.0083
     25 O2          6.4776   -25.0016   -22.2482 O.3        1          -0.3207
     26 C19         6.5537   -23.6276   -21.8240 C.3        1           0.2058
     27 O3          7.9243   -23.2671   -22.0777 O.3        1          -0.2748
     28 C20         8.6280   -24.4297   -21.9956 C.ar       1           0.0752
     29 C21         9.9972   -24.6787   -21.8297 C.ar       1          -0.1199
     30 C22        10.9440   -23.5581   -21.7122 C.2        1           0.5175
     31 O4         11.2132   -23.0977   -20.6112 O.co2      1          -0.6672
     32 O5         11.4619   -23.0872   -22.7156 O.co2      1          -0.6698
     33 H4          9.9343   -22.6642   -26.6738 H          1           0.1353
     34 H5         10.5097   -23.3305   -25.1269 H          1           0.1345
     35 H6          9.0792   -25.3292   -25.4558 H          1           0.0949
     36 H7          8.5039   -24.6629   -27.0029 H          1           0.0967
     37 H8         10.3302   -26.3009   -27.3637 H          1           0.1039
     38 H9         10.8273   -24.6681   -27.8692 H          1           0.1025
     39 H10        10.8075   -26.5536   -24.7234 H          1           0.4047
     40 H11        13.0039   -25.1274   -23.6282 H          1           0.1037
     41 H12        13.6553   -27.4761   -25.4369 H          1           0.0781
     42 H13        14.6563   -26.0464   -25.0413 H          1           0.0741
     43 H14        16.6108   -27.9826   -24.2694 H          1           0.1138
     44 H15        17.3164   -29.1965   -22.2497 H          1           0.1195
     45 H16        15.7478   -29.4756   -20.3707 H          1           0.1221
     46 H17        13.4776   -28.5398   -20.5162 H          1           0.1314
     47 H18        11.7114   -27.8219   -23.1087 H          1           0.1086
     48 H19        12.0873   -26.8523   -20.6967 H          1           0.1223
     49 H20        12.4729   -25.3327   -21.5397 H          1           0.0530
     50 H21         9.9288   -28.0614   -21.8452 H          1           0.1254
     51 H22         7.5255   -27.6247   -22.1268 H          1           0.1195
     52 H23         5.8788   -23.0069   -22.4136 H          1           0.1239
     53 H24         6.3253   -23.5415   -20.7617 H          1           0.0704
@<TRIPOS>BOND
     1    1    2 1
     2    1    3 1
     3    1    4 1
     4    1    5 1
     5    5    6 1
     6    5   33 1
     7    5   34 1
     8    6    7 1
     9    6   35 1
    10    6   36 1
    11    7    8 1
    12    7   37 1
    13    7   38 1
    14    8    9 2
    15    8   10 am
    16   10   11 1
    17   10   39 1
    18   11   19 1
    19   11   12 1
    20   11   40 1
    21   12   13 1
    22   12   41 1
    23   12   42 1
    24   13   18 ar
    25   13   14 ar
    26   14   15 ar
    27   14   43 1
    28   15   16 ar
    29   15   44 1
    30   16   17 ar
    31   16   45 1
    32   17   18 ar
    33   17   46 1
    34   18   19 1
    35   19   20 1
    36   19   47 1
    37   20   21 1
    38   20   48 1
    39   20   49 1
    40   21   29 ar
    41   21   22 ar
    42   22   23 ar
    43   22   50 1
    44   23   24 ar
    45   23   51 1
    46   24   28 ar
    47   24   25 1
    48   25   26 1
    49   26   27 1
    50   26   52 1
    51   26   53 1
    52   27   28 1
    53   28   29 ar
    54   29   30 1
    55   30   31 1
    56   30   32 2
