AVX17631_0, 3
##########                 Name:           AVX17631_0
##########          Protonation:                  100
##########               SMILES:   c1ccc2c(c1)c(no2)N
##########            Long Name:   1,2-benzoxazol-3-amine
##########          FlexRecCode: 1
##########               Number:                  499
##########   Ligand Source File: /raid1/people/rgc/Examples/sampl4/screening/ligands/build_1//sampl4-hivint-00000
##########           GlobalRank: 136
##########                 Rank:                    1
##########               Setnum:                    1
##########             Matchnum:                25255
##########                Cloud:                    1
##########        Electrostatic:            -6.583055
##########        Van der Waals:           -15.296753
##########  Ligand Polar Desolv:             3.874266
########## Ligand Apolar Desolv:            -2.288502
##########      Internal Energy:             0.000000
##########      Receptor Energy: 0.0
########## Receptor Desolvation:             0.000000
########## Receptor Hydrophobic:             0.000000
##########         Total Energy: -20.29
##########        Ligand Charge:             0.000000
##########            Arbitrary:    +999.9990
##########     heavy atom count:   10
##########           pose count:    1
##########        Ligand Energy:             0.000000
# num electro vdwattr vdwrepu polsolv apolsol rdesolv rhydroe totalscore fullpol fullapo
#   1  -17.45   -0.77    0.05   -0.41    0.25    0.00    0.00     -18.33   -1.45    0.90
#   2    9.82   -1.38    0.25   -0.55   -0.91    0.00    0.00       7.23   -1.43   -2.39
#   3   -9.55   -1.64    0.28    1.58    0.55    0.00    0.00      -8.77    3.67    1.28
#   4   -2.39   -2.68    0.92    0.78   -0.04    0.00    0.00      -3.41    1.45   -0.08
#   5    2.58   -3.48    1.99   -0.13   -0.20    0.00    0.00       0.76   -0.24   -0.35
#   6   -2.77   -3.62    1.53    0.19   -0.33    0.00    0.00      -5.00    0.27   -0.48
#   7   -0.93   -3.01    0.66   -0.08   -0.33    0.00    0.00      -3.69   -0.11   -0.47
#   8   -1.98   -3.55    1.30   -0.34   -0.31    0.00    0.00      -4.87   -0.51   -0.47
#   9   -0.63   -2.81    1.18   -0.04   -0.25    0.00    0.00      -2.55   -0.07   -0.47
#  10   -5.26   -2.30    0.80    0.35   -0.22    0.00    0.00      -6.63    0.71   -0.44
#  11    7.37   -0.01    0.00    0.42    0.10    0.00    0.00       7.87    2.52    0.60
#  12    7.86   -0.01    0.00    0.10    0.05    0.00    0.00       8.01    1.26    0.60
#  13    2.69   -1.12    1.36   -0.04   -0.17    0.00    0.00       2.73   -0.06   -0.28
#  14    2.02   -0.78    0.39    0.77   -0.19    0.00    0.00       2.22    1.16   -0.28
#  15    0.74   -1.42    1.56    0.83   -0.18    0.00    0.00       1.54    1.30   -0.28
#  16    1.28   -0.94    1.93    0.44   -0.12    0.00    0.00       2.60    1.05   -0.28

@<TRIPOS>MOLECULE
       AVX17631_0       100
   16    17     0     0     0



@<TRIPOS>ATOM
      1 N1         11.8422   -25.8493   -24.4170 N.pl3      1          -0.8162
      2 C1         12.2112   -26.4521   -23.2227 C.2        1           0.3772
      3 N2         11.5109   -26.4829   -22.1229 N.2        1          -0.3595
      4 O1         12.2222   -27.1898   -21.1268 O.3        1          -0.0920
      5 C2         13.4016   -27.6097   -21.6286 C.ar       1           0.1013
      6 C3         14.4623   -28.3316   -21.0944 C.ar       1          -0.1316
      7 C4         15.5618   -28.6132   -21.8763 C.ar       1          -0.0556
      8 C5         15.6200   -28.1819   -23.1937 C.ar       1          -0.1547
      9 C6         14.5868   -27.4704   -23.7365 C.ar       1          -0.0383
     10 C7         13.4622   -27.1810   -22.9633 C.ar       1          -0.2113
     11 H1         12.4353   -25.8884   -25.1835 H          1           0.4171
     12 H2         10.9895   -25.3921   -24.4862 H          1           0.4155
     13 H3         14.4254   -28.6705   -20.0696 H          1           0.1411
     14 H4         16.3853   -29.1743   -21.4599 H          1           0.1412
     15 H5         16.4881   -28.4097   -23.7945 H          1           0.1355
     16 H6         14.6389   -27.1370   -24.7625 H          1           0.1303
@<TRIPOS>BOND
     1    1    2 1
     2    1   11 1
     3    1   12 1
     4    2   10 1
     5    2    3 2
     6    3    4 1
     7    4    5 1
     8    5   10 ar
     9    5    6 ar
    10    6    7 ar
    11    6   13 1
    12    7    8 ar
    13    7   14 1
    14    8    9 ar
    15    8   15 1
    16    9   10 ar
    17    9   16 1
