AVX101122_1, 3
##########                 Name:          AVX101122_0
##########          Protonation:                   18
##########               SMILES:   CN(Cc1ccccc1C(=O)NCc2ccc(cc2)OC)Cc3cccc(c3C(=O)[O-])OC
##########            Long Name:   [(4-methoxyphenyl)methylcarbamoyl]phenyl]methyl-methyl-amino]methyl]benzoate
##########          FlexRecCode: 1
##########               Number:                  435
##########   Ligand Source File: /raid1/people/rgc/Examples/sampl4/screening/ligands/build_1//sampl4-hivint-00000
##########           GlobalRank: 30
##########                 Rank:                    1
##########               Setnum:                   87
##########             Matchnum:                14198
##########                Cloud:                    1
##########        Electrostatic:           -49.002468
##########        Van der Waals:           -14.257167
##########  Ligand Polar Desolv:            24.288866
########## Ligand Apolar Desolv:            -1.953526
##########      Internal Energy:             0.000000
##########      Receptor Energy: 0.0
########## Receptor Desolvation:             0.000000
########## Receptor Hydrophobic:             0.000000
##########         Total Energy: -40.92
##########        Ligand Charge:            -1.000000
##########            Arbitrary:    +999.9990
##########     heavy atom count:   33
##########           pose count:    1
##########        Ligand Energy:             0.000000
# num electro vdwattr vdwrepu polsolv apolsol rdesolv rhydroe totalscore fullpol fullapo
#   1    0.01   -0.55    0.04    0.00    0.01    0.00    0.00      -0.49    0.01    0.03
#   2   -0.14   -0.67    0.06    0.63    0.25    0.00    0.00       0.12    2.36    0.93
#   3    0.07   -0.80    0.19   -0.17   -0.06    0.00    0.00      -0.77   -0.81   -0.31
#   4   -0.11   -0.99    0.75    0.17   -0.07    0.00    0.00      -0.25    1.05   -0.42
#   5   -0.03   -0.43    0.09    0.04   -0.06    0.00    0.00      -0.38    0.31   -0.45
#   6   -0.08   -0.31    0.04    0.14   -0.04    0.00    0.00      -0.26    1.15   -0.37
#   7    0.10   -0.08    0.00   -0.10   -0.03    0.00    0.00      -0.11   -1.73   -0.44
#   8   -0.48   -0.06    0.00    0.19    0.06    0.00    0.00      -0.28    7.32    2.32
#   9    0.46   -0.04    0.00   -0.21   -0.01    0.00    0.00       0.19   -9.06   -0.65
#  10   -0.46   -0.03    0.00    0.27    0.01    0.00    0.00      -0.21   12.82    0.32
#  11   -0.14   -0.06    0.00    0.07   -0.01    0.00    0.00      -0.13    2.80   -0.41
#  12   -0.07   -0.04    0.00    0.01   -0.01    0.00    0.00      -0.10    0.62   -0.44
#  13   -0.10   -0.05    0.00    0.02   -0.01    0.00    0.00      -0.14    1.07   -0.47
#  14   -0.09   -0.15    0.00    0.08   -0.03    0.00    0.00      -0.18    1.49   -0.47
#  15   -0.11   -0.25    0.01    0.34   -0.04    0.00    0.00      -0.06    3.00   -0.38
#  16    0.00   -0.14    0.00    0.07   -0.02    0.00    0.00      -0.09    1.31   -0.39
#  17    0.19   -0.17    0.01   -0.38   -0.03    0.00    0.00      -0.37   -3.48   -0.28
#  18   -3.81   -0.32    0.02    1.82    0.26    0.00    0.00      -2.03   13.62    1.96
#  19    0.19   -0.51    0.06   -0.17   -0.11    0.00    0.00      -0.53   -0.70   -0.44
#  20    1.43   -0.33    0.05   -0.50   -0.05    0.00    0.00       0.59   -3.04   -0.31
#  21   -0.23   -0.42    0.01    0.08   -0.06    0.00    0.00      -0.61    0.44   -0.32
#  22   -1.72   -0.33    0.01    0.34   -0.05    0.00    0.00      -1.76    2.68   -0.41
#  23   -0.87   -0.56    0.04    0.05   -0.10    0.00    0.00      -1.44    0.26   -0.47
#  24   -3.21   -0.85    0.07    1.07   -0.13    0.00    0.00      -3.06    3.41   -0.42
#  25    3.29   -1.07    0.14   -1.01   -0.11    0.00    0.00       1.25   -2.98   -0.31
#  26   -6.82   -1.72    0.34    4.55    0.17    0.00    0.00      -3.47    9.85    0.36
#  27    0.48   -1.83    1.22   -0.02    0.01    0.00    0.00      -0.13   -0.05    0.03
#  28   -3.78   -0.79    0.06    2.38   -0.12    0.00    0.00      -2.25    8.07   -0.41
#  29   22.34   -1.99    1.11   -7.39   -0.07    0.00    0.00      14.01  -19.08   -0.17
#  30  -32.42   -2.56    2.65   10.25   -0.11    0.00    0.00     -22.20   28.80   -0.31
#  31  -34.15   -2.90    1.86   15.78   -0.28    0.00    0.00     -19.69   33.25   -0.59
#  32   -0.04   -0.76    0.41    0.09   -0.07    0.00    0.00      -0.37    0.53   -0.45
#  33   -0.09   -1.11    0.82    0.27   -0.09    0.00    0.00      -0.20    1.37   -0.46
#  34    0.01   -0.18    0.01   -0.02   -0.05    0.00    0.00      -0.23   -0.10   -0.26
#  35    0.03   -0.32    0.08   -0.03   -0.08    0.00    0.00      -0.32   -0.10   -0.26
#  36    0.03   -0.09    0.00   -0.01   -0.02    0.00    0.00      -0.08   -0.08   -0.28
#  37    0.06   -0.28    0.28   -0.05   -0.03    0.00    0.00      -0.02   -0.46   -0.22
#  38    0.06   -0.05    0.01   -0.03   -0.01    0.00    0.00      -0.03   -0.64   -0.28
#  39    0.05   -0.03    0.00   -0.02   -0.01    0.00    0.00      -0.01   -0.64   -0.28
#  40    0.04   -0.02    0.00   -0.01    0.00    0.00    0.00       0.01   -0.77   -0.28
#  41    0.25    0.00    0.00   -0.04    0.01    0.00    0.00       0.21   -3.02    0.43
#  42    0.07    0.00    0.00   -0.01    0.00    0.00    0.00       0.05   -1.20   -0.22
#  43    0.07   -0.01    0.00   -0.01    0.00    0.00    0.00       0.05   -1.19   -0.28
#  44    0.11   -0.03    0.00   -0.05   -0.01    0.00    0.00       0.02   -1.96   -0.28
#  45    0.43   -0.10    0.01   -0.27   -0.03    0.00    0.00       0.03   -2.07   -0.21
#  46    0.17   -0.03    0.00   -0.01   -0.01    0.00    0.00       0.13   -0.35   -0.25
#  47    0.14   -0.11    0.02   -0.15   -0.03    0.00    0.00      -0.13   -1.34   -0.22
#  48    0.80   -0.19    0.02   -0.27   -0.04    0.00    0.00       0.32   -1.38   -0.22
#  49    1.13   -0.30    0.10   -0.28   -0.06    0.00    0.00       0.59   -1.10   -0.23
#  50    0.04   -0.10    0.01   -0.08   -0.03    0.00    0.00      -0.16   -0.84   -0.28
#  51    0.96   -0.06    0.00   -0.06   -0.01    0.00    0.00       0.83   -0.84   -0.20
#  52    0.33   -0.30    0.23   -0.27   -0.05    0.00    0.00      -0.07   -1.36   -0.27
#  53    0.65   -0.04    0.00   -0.09   -0.01    0.00    0.00       0.52   -2.38   -0.28
#  54    0.67   -0.13    0.02   -0.23   -0.03    0.00    0.00       0.30   -1.85   -0.28
#  55    1.31   -0.21    0.02   -0.61   -0.06    0.00    0.00       0.46   -2.40   -0.22
#  56    0.92   -0.74    0.54   -0.63   -0.13    0.00    0.00      -0.05   -1.23   -0.26
#  57    0.62   -1.09    2.09   -0.46   -0.10    0.00    0.00       1.07   -1.23   -0.26
#  58    2.24   -0.32    0.06   -0.49   -0.08    0.00    0.00       1.41   -1.69   -0.28
#  59    0.10   -0.14    0.04   -0.13   -0.04    0.00    0.00      -0.17   -1.05   -0.28
#  60    0.10   -0.28    0.17   -0.18   -0.05    0.00    0.00      -0.25   -1.00   -0.28

@<TRIPOS>MOLECULE
      AVX101122_0        18
   60    62     0     0     0



@<TRIPOS>ATOM
      1 C1          1.3961   -27.4380   -24.3634 C.3        1           0.0267
      2 O1          1.0819   -26.4628   -25.3595 O.3        1          -0.3178
      3 C2          2.1076   -25.7005   -25.8219 C.ar       1           0.1320
      4 C3          1.8729   -24.7303   -26.7854 C.ar       1          -0.2111
      5 C4          2.9173   -23.9566   -27.2534 C.ar       1          -0.0597
      6 C5          4.1956   -24.1487   -26.7628 C.ar       1          -0.1436
      7 C6          5.3330   -23.3034   -27.2754 C.3        1           0.1665
      8 N1          5.4597   -22.1013   -26.4478 N.am       1          -0.7287
      9 C7          6.4167   -21.1925   -26.7215 C.2        1           0.5610
     10 O2          7.1748   -21.3705   -27.6549 O.2        1          -0.5284
     11 C8          6.5446   -19.9793   -25.8862 C.ar       1          -0.1504
     12 C9          5.4776   -19.0856   -25.7801 C.ar       1          -0.0929
     13 C10         5.6033   -17.9558   -24.9987 C.ar       1          -0.1412
     14 C11         6.7840   -17.7072   -24.3213 C.ar       1          -0.0965
     15 C12         7.8453   -18.5889   -24.4222 C.ar       1          -0.0951
     16 C13         7.7306   -19.7257   -25.1957 C.ar       1           0.0015
     17 C14         8.8856   -20.6881   -25.2998 C.3        1           0.1071
     18 N2          8.7754   -21.7016   -24.2422 N.3        1          -0.5103
     19 C15         8.7994   -21.0789   -22.9118 C.3        1           0.0185
     20 C16         9.8336   -22.7125   -24.3694 C.3        1           0.1072
     21 C17         9.4299   -23.9588   -23.6245 C.ar       1          -0.0138
     22 C18         8.1546   -24.4614   -23.7606 C.ar       1          -0.1742
     23 C19         7.7778   -25.6072   -23.0788 C.ar       1          -0.0926
     24 C20         8.6751   -26.2581   -22.2555 C.ar       1          -0.2347
     25 C21         9.9634   -25.7671   -22.1052 C.ar       1           0.1503
     26 O3         10.8456   -26.4051   -21.2967 O.3        1          -0.2675
     27 C22        11.6493   -27.4262   -21.8912 C.3        1           0.0229
     28 C23        10.3514   -24.6102   -22.7984 C.ar       1          -0.1469
     29 C24        11.7175   -24.0827   -22.6525 C.2        1           0.5249
     30 O4         12.6014   -24.4558   -23.4115 O.co2      1          -0.6656
     31 O5         11.9691   -23.2713   -21.7723 O.co2      1          -0.6800
     32 C25         4.4320   -25.1147   -25.8022 C.ar       1          -0.0587
     33 C26         3.3902   -25.8875   -25.3271 C.ar       1          -0.1529
     34 H1          0.4902   -27.9755   -24.0827 H          1           0.0561
     35 H2          2.1273   -28.1414   -24.7615 H          1           0.0559
     36 H3          1.8102   -26.9410   -23.4862 H          1           0.1001
     37 H4          0.8747   -24.5803   -27.1695 H          1           0.1289
     38 H5          2.7351   -23.2010   -28.0034 H          1           0.1274
     39 H6          6.2598   -23.8753   -27.2298 H          1           0.0774
     40 H7          5.1346   -23.0147   -28.3077 H          1           0.0747
     41 H8          4.8549   -21.9593   -25.7029 H          1           0.3990
     42 H9          4.5558   -19.2780   -26.3088 H          1           0.1172
     43 H10         4.7785   -17.2635   -24.9159 H          1           0.1206
     44 H11         6.8776   -16.8209   -23.7115 H          1           0.1222
     45 H12         8.7643   -18.3889   -23.8911 H          1           0.1480
     46 H13         8.8653   -21.1762   -26.2743 H          1           0.0996
     47 H14         9.8233   -20.1442   -25.1855 H          1           0.0580
     48 H15         8.7162   -21.8515   -22.1476 H          1           0.0589
     49 H16         9.7365   -20.5377   -22.7808 H          1           0.0655
     50 H17         7.9635   -20.3855   -22.8200 H          1           0.0151
     51 H18         9.9834   -22.9510   -25.4223 H          1           0.1218
     52 H19        10.7609   -22.3226   -23.9496 H          1           0.0147
     53 H20         7.4450   -23.9598   -24.4018 H          1           0.1093
     54 H21         6.7756   -25.9936   -23.1916 H          1           0.1109
     55 H22         8.3731   -27.1506   -21.7276 H          1           0.1160
     56 H23        12.3094   -27.8542   -21.1368 H          1           0.0440
     57 H24        11.0047   -28.2069   -22.2949 H          1           0.0441
     58 H25        12.2468   -26.9964   -22.6952 H          1           0.0919
     59 H26         5.4314   -25.2626   -25.4202 H          1           0.1341
     60 H27         3.5746   -26.6394   -24.5741 H          1           0.1328
@<TRIPOS>BOND
     1    1    2 1
     2    1   34 1
     3    1   35 1
     4    1   36 1
     5    2    3 1
     6    3   33 ar
     7    3    4 ar
     8    4    5 ar
     9    4   37 1
    10    5    6 ar
    11    5   38 1
    12    6    7 1
    13    6   32 ar
    14    7    8 1
    15    7   39 1
    16    7   40 1
    17    8    9 am
    18    8   41 1
    19    9   10 2
    20    9   11 1
    21   11   16 ar
    22   11   12 ar
    23   12   13 ar
    24   12   42 1
    25   13   14 ar
    26   13   43 1
    27   14   15 ar
    28   14   44 1
    29   15   16 ar
    30   15   45 1
    31   16   17 1
    32   17   18 1
    33   17   46 1
    34   17   47 1
    35   18   19 1
    36   18   20 1
    37   19   48 1
    38   19   49 1
    39   19   50 1
    40   20   21 1
    41   20   51 1
    42   20   52 1
    43   21   28 ar
    44   21   22 ar
    45   22   23 ar
    46   22   53 1
    47   23   24 ar
    48   23   54 1
    49   24   25 ar
    50   24   55 1
    51   25   26 1
    52   25   28 ar
    53   26   27 1
    54   27   56 1
    55   27   57 1
    56   27   58 1
    57   28   29 1
    58   29   30 1
    59   29   31 2
    60   32   33 ar
    61   32   59 1
    62   33   60 1
