AVX101121_0, 3
##########                 Name:          AVX101121_0
##########          Protonation:                   85
##########               SMILES:   C[NH+](Cc1cccc(c1C(=O)[O-])OC)Cc2cc3ccccc3cc2C(=O)NCc4ccc(cc4)OC
##########            Long Name:   hoxyphenyl)methylcarbamoyl]-2-naphthyl]methyl-methyl-ammonio]methyl]benzoate
##########          FlexRecCode: 1
##########               Number:                  418
##########   Ligand Source File: /raid1/people/rgc/Examples/sampl4/screening/ligands/build_1//sampl4-hivint-00000
##########           GlobalRank: 26
##########                 Rank:                    1
##########               Setnum:                  254
##########             Matchnum:                 1597
##########                Cloud:                    1
##########        Electrostatic:           -36.756866
##########        Van der Waals:           -14.486153
##########  Ligand Polar Desolv:            12.360050
########## Ligand Apolar Desolv:            -2.374804
##########      Internal Energy:             0.000000
##########      Receptor Energy: 0.0
########## Receptor Desolvation:             0.000000
########## Receptor Hydrophobic:             0.000000
##########         Total Energy: -41.26
##########        Ligand Charge:             0.000000
##########            Arbitrary:    +999.9990
##########     heavy atom count:   37
##########           pose count:    1
##########        Ligand Energy:             0.000000
# num electro vdwattr vdwrepu polsolv apolsol rdesolv rhydroe totalscore fullpol fullapo
#   1    0.00   -0.21    0.04    0.00    0.00    0.00    0.00      -0.16    0.03    0.03
#   2   -0.01   -1.08    0.73    0.05    0.12    0.00    0.00      -0.19    0.38    0.93
#   3    0.03   -0.48    0.11    0.00   -0.03    0.00    0.00      -0.39   -0.05   -0.31
#   4   -0.06   -0.73    0.24   -0.07   -0.06    0.00    0.00      -0.67   -0.49   -0.42
#   5   -0.02   -0.23    0.02   -0.02   -0.04    0.00    0.00      -0.29   -0.20   -0.45
#   6   -0.06   -0.07    0.00   -0.01   -0.01    0.00    0.00      -0.15   -0.44   -0.37
#   7    0.09   -0.02    0.00    0.01   -0.01    0.00    0.00       0.07    0.61   -0.44
#   8   -0.43   -0.05    0.00   -0.06    0.05    0.00    0.00      -0.49   -3.03    2.32
#   9    0.48   -0.05    0.00    0.03   -0.01    0.00    0.00       0.45    1.44   -0.65
#  10   -0.56   -0.03    0.00   -0.01    0.01    0.00    0.00      -0.59   -0.26    0.32
#  11   -0.19   -0.08    0.00   -0.01   -0.01    0.00    0.00      -0.29   -0.46   -0.41
#  12   -0.20   -0.15    0.00   -0.01   -0.03    0.00    0.00      -0.39   -0.19   -0.39
#  13    0.25   -0.11    0.00    0.02   -0.02    0.00    0.00       0.15    0.32   -0.26
#  14   -3.17   -0.20    0.00   -0.18    0.02    0.00    0.00      -3.53   -1.90    0.16
#  15    4.65    0.00    0.00    0.01    0.02    0.00    0.00       4.66    0.11    0.32
#  16   -0.29   -0.27    0.02   -0.12   -0.06    0.00    0.00      -0.72   -0.81   -0.42
#  17    0.63   -0.20    0.00    0.02   -0.04    0.00    0.00       0.43    0.20   -0.29
#  18   -1.42   -0.53    0.02    0.00   -0.06    0.00    0.00      -1.99   -0.02   -0.30
#  19   -1.85   -0.67    0.04   -0.19   -0.10    0.00    0.00      -2.77   -0.73   -0.40
#  20   -0.99   -1.22    0.18   -0.10   -0.18    0.00    0.00      -2.30   -0.25   -0.47
#  21   -3.67   -2.09    0.71    0.20   -0.19    0.00    0.00      -5.05    0.43   -0.42
#  22    4.35   -1.76    0.37   -0.43   -0.13    0.00    0.00       2.39   -0.99   -0.31
#  23   -9.02   -3.62    3.25    2.47    0.18    0.00    0.00      -6.73    4.84    0.36
#  24    0.53   -2.18    1.41   -0.04    0.02    0.00    0.00      -0.26   -0.07    0.03
#  25   -4.20   -0.94    0.09    0.77   -0.13    0.00    0.00      -4.41    2.42   -0.40
#  26   20.35   -1.57    0.65   -3.23   -0.05    0.00    0.00      16.14   -9.07   -0.15
#  27  -28.69   -1.76    1.50    3.54   -0.09    0.00    0.00     -25.50   11.82   -0.30
#  28  -29.50   -2.26    1.13    8.52   -0.25    0.00    0.00     -22.36   19.83   -0.59
#  29   -0.62   -0.26    0.01   -0.04   -0.03    0.00    0.00      -0.94   -0.38   -0.33
#  30   -0.05   -0.27    0.01   -0.01   -0.04    0.00    0.00      -0.36   -0.08   -0.40
#  31   -0.09   -0.63    0.05   -0.05   -0.10    0.00    0.00      -0.81   -0.23   -0.46
#  32    0.09   -0.67    0.06   -0.05   -0.10    0.00    0.00      -0.66   -0.24   -0.47
#  33   -0.08   -0.27    0.01   -0.04   -0.05    0.00    0.00      -0.43   -0.41   -0.47
#  34   -0.07   -0.14    0.00   -0.02   -0.02    0.00    0.00      -0.25   -0.37   -0.46
#  35   -0.05   -0.14    0.00   -0.01   -0.02    0.00    0.00      -0.23   -0.24   -0.40
#  36   -0.03   -0.07    0.00    0.00   -0.01    0.00    0.00      -0.12   -0.12   -0.43
#  37   -0.02   -0.05    0.00    0.00   -0.01    0.00    0.00      -0.07   -0.10   -0.45
#  38   -0.03   -0.10    0.00    0.00   -0.02    0.00    0.00      -0.15    0.05   -0.46
#  39    0.00   -0.07    0.02    0.03   -0.02    0.00    0.00      -0.05    0.52   -0.28
#  40    0.00   -0.03    0.00    0.01   -0.01    0.00    0.00      -0.03    0.35   -0.26
#  41    0.00   -0.02    0.00    0.00    0.00    0.00    0.00      -0.01    0.29   -0.26
#  42    0.03   -0.40    0.28    0.13   -0.04    0.00    0.00       0.00    0.67   -0.22
#  43    0.06   -0.05    0.00    0.05   -0.01    0.00    0.00       0.05    1.00   -0.28
#  44    0.04    0.00    0.00    0.00    0.00    0.00    0.00       0.04    0.13   -0.28
#  45    0.05   -0.01    0.00    0.00    0.00    0.00    0.00       0.04    0.34   -0.28
#  46    0.21    0.00    0.00    0.04    0.01    0.00    0.00       0.25    2.66    0.44
#  47    0.64   -0.06    0.00    0.00   -0.02    0.00    0.00       0.57   -0.06   -0.26
#  48    0.45   -0.02    0.00    0.03   -0.01    0.00    0.00       0.46    1.45   -0.22
#  49    0.64   -0.16    0.03    0.18   -0.03    0.00    0.00       0.66    1.32   -0.22
#  50    0.27   -0.05    0.00    0.17   -0.02    0.00    0.00       0.37    2.86   -0.28
#  51    0.38   -0.08    0.00    0.12   -0.02    0.00    0.00       0.41    1.39   -0.18
#  52    2.67   -0.08    0.00   -0.02   -0.02    0.00    0.00       2.56   -0.32   -0.20
#  53    0.94   -0.04    0.00    0.09   -0.01    0.00    0.00       0.98    2.23   -0.27
#  54    0.96   -0.11    0.01    0.27   -0.03    0.00    0.00       1.10    2.62   -0.28
#  55    1.13   -0.26    0.04    0.41   -0.08    0.00    0.00       1.25    1.52   -0.28
#  56    1.97   -0.85    0.83    0.01   -0.11    0.00    0.00       1.85    0.02   -0.22
#  57    1.71   -1.12    1.39   -0.12   -0.13    0.00    0.00       1.73   -0.25   -0.26
#  58    0.99   -1.08    2.70   -0.10   -0.11    0.00    0.00       2.39   -0.22   -0.26
#  59    2.99   -0.39    0.12   -0.17   -0.09    0.00    0.00       2.46   -0.56   -0.28
#  60    1.23   -0.07    0.00    0.03   -0.01    0.00    0.00       1.19    0.58   -0.17
#  61    0.17   -0.21    0.04    0.07   -0.05    0.00    0.00       0.02    0.36   -0.28
#  62   -0.76   -0.26    0.06    0.12   -0.06    0.00    0.00      -0.91    0.56   -0.28
#  63    0.10   -0.04    0.00    0.02   -0.01    0.00    0.00       0.08    0.80   -0.28
#  64    0.09   -0.01    0.00    0.02    0.00    0.00    0.00       0.09    1.14   -0.28
#  65    0.10   -0.01    0.00    0.02    0.00    0.00    0.00       0.10    1.43   -0.22
#  66    0.04    0.00    0.00    0.00    0.00    0.00    0.00       0.04    0.37   -0.28
#  67    0.02   -0.01    0.00    0.00    0.00    0.00    0.00       0.01   -0.09   -0.28

@<TRIPOS>MOLECULE
      AVX101121_0        85
   67    70     0     0     0



@<TRIPOS>ATOM
      1 C1          1.3913   -23.9563   -33.5820 C.3        1           0.0255
      2 O1          2.0806   -24.7198   -32.5906 O.3        1          -0.3155
      3 C2          3.0523   -24.0823   -31.8860 C.ar       1           0.1397
      4 C3          3.7655   -24.7653   -30.9112 C.ar       1          -0.2113
      5 C4          4.7530   -24.1152   -30.1967 C.ar       1          -0.0578
      6 C5          5.0304   -22.7849   -30.4518 C.ar       1          -0.1556
      7 C6          6.1078   -22.0780   -29.6705 C.3        1           0.1666
      8 N1          7.2929   -22.9353   -29.5869 N.am       1          -0.7168
      9 C7          8.3893   -22.5073   -28.9301 C.2        1           0.5598
     10 O2          8.3949   -21.4100   -28.4072 O.2        1          -0.5353
     11 C8          9.5845   -23.3724   -28.8458 C.ar       1          -0.1219
     12 C9         10.0635   -23.7798   -27.5877 C.ar       1          -0.0580
     13 C10         9.3509   -23.3292   -26.3387 C.3        1           0.0509
     14 N2          9.1941   -24.4695   -25.4259 N.4        1          -0.3735
     15 H1         10.0341   -25.0284   -25.4387 H          1           0.4289
     16 C11         8.0540   -25.2891   -25.8576 C.3        1          -0.0646
     17 C12         8.9547   -23.9765   -24.0630 C.3        1           0.0513
     18 C13         9.2773   -25.0643   -23.0714 C.ar       1          -0.0851
     19 C14         8.3002   -25.9527   -22.6797 C.ar       1          -0.1566
     20 C15         8.5908   -26.9555   -21.7686 C.ar       1          -0.0787
     21 C16         9.8620   -27.0758   -21.2431 C.ar       1          -0.2078
     22 C17        10.8590   -26.1907   -21.6248 C.ar       1           0.1659
     23 O3         12.1078   -26.3075   -21.1092 O.3        1          -0.2655
     24 C18        13.0257   -27.1440   -21.8159 C.3        1           0.0183
     25 C19        10.5708   -25.1772   -22.5516 C.ar       1          -0.1586
     26 C20        11.6217   -24.2356   -22.9699 C.2        1           0.5201
     27 O4         12.3218   -24.4920   -23.9400 O.co2      1          -0.7051
     28 O5         11.7951   -23.1967   -22.3476 O.co2      1          -0.6310
     29 C21        11.1593   -24.5741   -27.4842 C.ar       1          -0.1235
     30 C22        11.8319   -25.0003   -28.6443 C.ar       1          -0.0197
     31 C23        12.9680   -25.8226   -28.5622 C.ar       1          -0.1129
     32 C24        13.5977   -26.2193   -29.7022 C.ar       1          -0.0938
     33 C25        13.1333   -25.8219   -30.9546 C.ar       1          -0.1091
     34 C26        12.0360   -25.0257   -31.0739 C.ar       1          -0.0977
     35 C27        11.3588   -24.5962   -29.9184 C.ar       1          -0.0586
     36 C28        10.2210   -23.7801   -30.0061 C.ar       1          -0.0402
     37 C29         4.3212   -22.1022   -31.4227 C.ar       1          -0.0575
     38 C30         3.3364   -22.7494   -32.1437 C.ar       1          -0.1531
     39 H2          0.6440   -24.5831   -34.0687 H          1           0.1032
     40 H3          0.9000   -23.1058   -33.1092 H          1           0.0570
     41 H4          2.1039   -23.5975   -34.3246 H          1           0.0576
     42 H5          3.5487   -25.8043   -30.7110 H          1           0.1311
     43 H6          5.3085   -24.6464   -29.4380 H          1           0.1272
     44 H7          6.3684   -21.1459   -30.1721 H          1           0.0825
     45 H8          5.7449   -21.8607   -28.6658 H          1           0.0802
     46 H9          7.2884   -23.8110   -30.0043 H          1           0.4022
     47 H10         9.9339   -22.5493   -25.8490 H          1           0.1518
     48 H11         8.3685   -22.9372   -26.6024 H          1           0.1494
     49 H12         7.9377   -26.1352   -25.1802 H          1           0.1196
     50 H13         7.1466   -24.6854   -25.8438 H          1           0.1183
     51 H14         8.2317   -25.6550   -26.8688 H          1           0.1183
     52 H15         9.5899   -23.1114   -23.8728 H          1           0.1687
     53 H16         7.9085   -23.6889   -23.9592 H          1           0.1140
     54 H17         7.3026   -25.8671   -23.0844 H          1           0.1245
     55 H18         7.8179   -27.6470   -21.4672 H          1           0.1272
     56 H19        10.0800   -27.8602   -20.5335 H          1           0.1308
     57 H20        13.9849   -27.1496   -21.2982 H          1           0.0525
     58 H21        12.6314   -28.1592   -21.8612 H          1           0.0515
     59 H22        13.1613   -26.7614   -22.8275 H          1           0.1021
     60 H23        11.5151   -24.8788   -26.5111 H          1           0.1294
     61 H24        13.3405   -26.1384   -27.5989 H          1           0.1341
     62 H25        14.4707   -26.8515   -29.6349 H          1           0.1314
     63 H26        13.6518   -26.1501   -31.8433 H          1           0.1311
     64 H27        11.6873   -24.7249   -32.0508 H          1           0.1344
     65 H28         9.8473   -23.4684   -30.9703 H          1           0.1393
     66 H29         4.5401   -21.0632   -31.6204 H          1           0.1334
     67 H30         2.7853   -22.2167   -32.9045 H          1           0.1348
@<TRIPOS>BOND
     1    1    2 1
     2    1   39 1
     3    1   40 1
     4    1   41 1
     5    2    3 1
     6    3   38 ar
     7    3    4 ar
     8    4    5 ar
     9    4   42 1
    10    5    6 ar
    11    5   43 1
    12    6    7 1
    13    6   37 ar
    14    7    8 1
    15    7   44 1
    16    7   45 1
    17    8    9 am
    18    8   46 1
    19    9   10 2
    20    9   11 1
    21   11   36 ar
    22   11   12 ar
    23   12   13 1
    24   12   29 ar
    25   13   14 1
    26   13   47 1
    27   13   48 1
    28   14   15 1
    29   14   16 1
    30   14   17 1
    31   16   49 1
    32   16   50 1
    33   16   51 1
    34   17   18 1
    35   17   52 1
    36   17   53 1
    37   18   25 ar
    38   18   19 ar
    39   19   20 ar
    40   19   54 1
    41   20   21 ar
    42   20   55 1
    43   21   22 ar
    44   21   56 1
    45   22   23 1
    46   22   25 ar
    47   23   24 1
    48   24   57 1
    49   24   58 1
    50   24   59 1
    51   25   26 1
    52   26   27 1
    53   26   28 2
    54   29   30 ar
    55   29   60 1
    56   30   35 ar
    57   30   31 ar
    58   31   32 ar
    59   31   61 1
    60   32   33 ar
    61   32   62 1
    62   33   34 ar
    63   33   63 1
    64   34   35 ar
    65   34   64 1
    66   35   36 ar
    67   36   65 1
    68   37   38 ar
    69   37   66 1
    70   38   67 1
