AVX17287_0, 3
##########                 Name:           AVX17287_0
##########          Protonation:                  100
##########               SMILES:   c1ccc2c(c1)c(c[nH]2)Cc3ccc4c(c3C(=O)[O-])OCO4
##########            Long Name:   5-(1H-indol-3-ylmethyl)-1,3-benzodioxole-4-carboxylate
##########          FlexRecCode: 1
##########               Number:                  341
##########   Ligand Source File: /raid1/people/rgc/Examples/sampl4/screening/ligands/build_1//sampl4-hivint-00000
##########           GlobalRank: 4
##########                 Rank:                    1
##########               Setnum:                   30
##########             Matchnum:                12808
##########                Cloud:                    1
##########        Electrostatic:           -42.695259
##########        Van der Waals:           -25.211582
##########  Ligand Polar Desolv:            21.206173
########## Ligand Apolar Desolv:            -3.036716
##########      Internal Energy:             0.000000
##########      Receptor Energy: 0.0
########## Receptor Desolvation:             0.000000
########## Receptor Hydrophobic:             0.000000
##########         Total Energy: -49.74
##########        Ligand Charge:            -1.000000
##########            Arbitrary:    +999.9990
##########     heavy atom count:   22
##########           pose count:    1
##########        Ligand Energy:             0.000000
# num electro vdwattr vdwrepu polsolv apolsol rdesolv rhydroe totalscore fullpol fullapo
#   1  -32.80   -2.37    1.32   13.26   -0.17    0.00    0.00     -20.77   31.25   -0.41
#   2   17.15   -1.17    0.34   -6.58   -0.04    0.00    0.00       9.70  -19.69   -0.13
#   3  -16.24   -1.18    0.67    7.22   -0.09    0.00    0.00      -9.61   29.63   -0.37
#   4   -1.92   -0.78    0.08    1.64   -0.12    0.00    0.00      -1.10    5.67   -0.40
#   5    0.77   -1.08    0.18    0.19   -0.10    0.00    0.00      -0.04    0.64   -0.33
#   6   -4.22   -1.27    0.25    3.22    0.16    0.00    0.00      -1.86    9.95    0.48
#   7    0.47   -0.77    0.10   -0.90    0.01    0.00    0.00      -1.09   -3.11    0.02
#   8   -2.00   -1.43    0.26    1.64    0.17    0.00    0.00      -1.36    5.02    0.52
#   9    0.15   -1.35    0.33   -0.09   -0.10    0.00    0.00      -1.06   -0.30   -0.33
#  10   -1.15   -1.15    0.20    0.24   -0.14    0.00    0.00      -1.99    0.80   -0.47
#  11   -1.43   -0.82    0.07    0.28   -0.13    0.00    0.00      -2.02    0.98   -0.44
#  12   -0.89   -0.68    0.04    0.35   -0.09    0.00    0.00      -1.26    1.42   -0.36
#  13   -0.01   -0.50    0.03   -0.02   -0.07    0.00    0.00      -0.58   -0.07   -0.24
#  14   -3.98   -1.61    0.32    1.77   -0.17    0.00    0.00      -3.67    4.13   -0.39
#  15    2.12   -2.83    1.00   -0.32   -0.48    0.00    0.00      -0.50   -0.62   -0.94
#  16  -13.62   -5.06    4.48    6.72    0.71    0.00    0.00      -6.78   11.14    1.17
#  17    2.25   -3.94    2.39   -0.51   -0.44    0.00    0.00      -0.24   -0.89   -0.78
#  18   -3.12   -4.02    2.00    1.13   -0.32    0.00    0.00      -4.33    1.68   -0.48
#  19   -2.24   -2.94    0.76    0.41   -0.32    0.00    0.00      -4.32    0.60   -0.47
#  20   -2.58   -2.81    0.85    0.59   -0.28    0.00    0.00      -4.23    1.00   -0.47
#  21   -1.45   -2.10    0.53    0.47   -0.22    0.00    0.00      -2.77    1.01   -0.47
#  22   -2.28   -2.45    1.13    1.18   -0.21    0.00    0.00      -2.64    2.47   -0.44
#  23    0.30   -0.39    0.09   -0.71   -0.08    0.00    0.00      -0.80   -2.36   -0.28
#  24    0.13   -0.08    0.00   -0.10   -0.02    0.00    0.00      -0.07   -1.70   -0.28
#  25    0.61   -0.33    0.15   -0.49   -0.07    0.00    0.00      -0.12   -2.08   -0.28
#  26    1.27   -0.17    0.01   -0.42   -0.05    0.00    0.00       0.65   -2.20   -0.27
#  27    0.84   -0.19    0.01   -0.50   -0.06    0.00    0.00       0.11   -2.56   -0.28
#  28    1.73   -0.10    0.00   -0.02   -0.02    0.00    0.00       1.59   -0.18   -0.24
#  29    4.04   -0.66    0.38   -1.49   -0.11    0.00    0.00       2.17   -3.24   -0.23
#  30    7.99   -0.20    0.10   -4.59    0.40    0.00    0.00       3.71   -6.84    0.60
#  31    2.58   -1.24    1.74   -0.88   -0.17    0.00    0.00       2.02   -1.42   -0.28
#  32    2.00   -0.57    0.10   -0.60   -0.19    0.00    0.00       0.73   -0.88   -0.28
#  33    0.88   -1.23    2.55   -0.46   -0.15    0.00    0.00       1.60   -0.87   -0.28
#  34    1.93   -0.28    0.03   -0.41   -0.08    0.00    0.00       1.19   -1.38   -0.27

@<TRIPOS>MOLECULE
       AVX17287_0       100
   34    37     0     0     0



@<TRIPOS>ATOM
      1 O1         11.9073   -23.3889   -22.4132 O.co2      1          -0.6818
      2 C1         10.9169   -23.4492   -23.1288 C.2        1           0.5374
      3 O2         10.9853   -23.0985   -24.2989 O.co2      1          -0.6769
      4 C2          9.6446   -23.9495   -22.5837 C.ar       1          -0.0863
      5 C3          8.7269   -23.0607   -22.0080 C.ar       1           0.0447
      6 O3          8.7656   -21.7115   -21.8290 O.3        1          -0.3001
      7 C4          7.4047   -21.3178   -21.5721 C.3        1           0.2108
      8 O4          6.8113   -22.4958   -20.9945 O.3        1          -0.3177
      9 C5          7.5262   -23.5457   -21.4955 C.ar       1           0.0130
     10 C6          7.2456   -24.9000   -21.5577 C.ar       1          -0.1155
     11 C7          8.1528   -25.7788   -22.1271 C.ar       1          -0.1123
     12 C8          9.3424   -25.3147   -22.6428 C.ar       1          -0.0493
     13 C9         10.3203   -26.2770   -23.2663 C.3        1          -0.0004
     14 C10        11.2674   -26.7855   -22.2102 C.2        1          -0.1731
     15 C11        10.9976   -26.9424   -20.9046 C.2        1           0.0925
     16 N1         12.1007   -27.4260   -20.2553 N.pl3      1          -0.5958
     17 C12        13.1333   -27.5963   -21.1500 C.ar       1           0.0883
     18 C13        14.4428   -28.0495   -21.0263 C.ar       1          -0.1308
     19 C14        15.2546   -28.1074   -22.1377 C.ar       1          -0.1117
     20 C15        14.7795   -27.7177   -23.3826 C.ar       1          -0.1546
     21 C16        13.4970   -27.2695   -23.5268 C.ar       1          -0.0700
     22 C17        12.6550   -27.2082   -22.4146 C.ar       1          -0.0906
     23 H1          7.3728   -20.4875   -20.8665 H          1           0.1234
     24 H2          6.9010   -21.0515   -22.5014 H          1           0.0764
     25 H3          6.3138   -25.2737   -21.1597 H          1           0.1252
     26 H4          7.9241   -26.8334   -22.1702 H          1           0.1290
     27 H5          9.7771   -27.1158   -23.7016 H          1           0.0752
     28 H6         10.8855   -25.7664   -24.0460 H          1           0.0899
     29 H7         10.0504   -26.7193   -20.4360 H          1           0.1838
     30 H8         12.1482   -27.6199   -19.3060 H          1           0.4131
     31 H9         14.8218   -28.3546   -20.0621 H          1           0.1137
     32 H10        16.2710   -28.4591   -22.0396 H          1           0.1176
     33 H11        15.4291   -27.7688   -24.2439 H          1           0.1158
     34 H12        13.1343   -26.9680   -24.4984 H          1           0.1175
@<TRIPOS>BOND
     1    1    2 1
     2    2    3 2
     3    2    4 1
     4    4   12 ar
     5    4    5 ar
     6    5    9 ar
     7    5    6 1
     8    6    7 1
     9    7    8 1
    10    7   23 1
    11    7   24 1
    12    8    9 1
    13    9   10 ar
    14   10   11 ar
    15   10   25 1
    16   11   12 ar
    17   11   26 1
    18   12   13 1
    19   13   14 1
    20   13   27 1
    21   13   28 1
    22   14   22 1
    23   14   15 2
    24   15   16 1
    25   15   29 1
    26   16   17 1
    27   16   30 1
    28   17   22 ar
    29   17   18 ar
    30   18   19 ar
    31   18   31 1
    32   19   20 ar
    33   19   32 1
    34   20   21 ar
    35   20   33 1
    36   21   22 ar
    37   21   34 1
