AVX101119_0, 3
##########                 Name:          AVX101119_0
##########          Protonation:                   35
##########               SMILES:   CN(Cc1cccc(c1C(=O)[O-])OC)Cc2cc3c(cc2C(=O)NCc4ccc(cc4)OC)OCO3
##########            Long Name:   yl)methylcarbamoyl]-1,3-benzodioxol-5-yl]methyl-methyl-amino]methyl]benzoate
##########          FlexRecCode: 1
##########               Number:                   21
##########   Ligand Source File: /raid1/people/rgc/Examples/sampl4/screening/ligands/build_1//sampl4-hivint-00000
##########           GlobalRank: 79
##########                 Rank:                    1
##########               Setnum:                   56
##########             Matchnum:                15268
##########                Cloud:                    1
##########        Electrostatic:           -43.576649
##########        Van der Waals:           -12.134627
##########  Ligand Polar Desolv:            21.424189
########## Ligand Apolar Desolv:            -1.952590
##########      Internal Energy:             0.000000
##########      Receptor Energy: 0.0
########## Receptor Desolvation:             0.000000
########## Receptor Hydrophobic:             0.000000
##########         Total Energy: -36.24
##########        Ligand Charge:            -1.000000
##########            Arbitrary:    +999.9990
##########     heavy atom count:   36
##########           pose count:    1
##########        Ligand Energy:             0.000000
# num electro vdwattr vdwrepu polsolv apolsol rdesolv rhydroe totalscore fullpol fullapo
#   1    0.03   -0.67    0.28    0.00    0.01    0.00    0.00      -0.36   -0.01    0.03
#   2   -0.32   -0.16    0.01    0.20    0.08    0.00    0.00      -0.20    2.43    0.93
#   3    0.16   -0.14    0.01   -0.05   -0.02    0.00    0.00      -0.05   -0.78   -0.31
#   4   -0.20   -0.04    0.00    0.02   -0.01    0.00    0.00      -0.23    1.04   -0.42
#   5   -0.06   -0.03    0.00    0.00   -0.01    0.00    0.00      -0.09    0.28   -0.45
#   6   -0.19   -0.07    0.00    0.04   -0.01    0.00    0.00      -0.24    1.04   -0.37
#   7    0.22   -0.04    0.00   -0.04   -0.01    0.00    0.00       0.13   -1.48   -0.44
#   8   -1.06   -0.07    0.00    0.19    0.07    0.00    0.00      -0.86    6.48    2.32
#   9    0.81   -0.14    0.00   -0.48   -0.04    0.00    0.00       0.15   -8.33   -0.65
#  10   -0.78   -0.19    0.00    1.01    0.03    0.00    0.00       0.07   10.94    0.32
#  11   -0.10   -0.26    0.03    0.22   -0.04    0.00    0.00      -0.16    2.20   -0.41
#  12   -0.04   -0.57    0.21    0.05   -0.06    0.00    0.00      -0.41    0.38   -0.45
#  13    0.00   -0.99    0.76   -0.06   -0.06    0.00    0.00      -0.34   -0.31   -0.33
#  14    0.04   -0.54    0.16   -0.10   -0.05    0.00    0.00      -0.49   -0.65   -0.33
#  15   -0.16   -0.37    0.04    0.87    0.07    0.00    0.00       0.45    5.93    0.50
#  16    0.12   -0.49    0.12   -0.34    0.00    0.00    0.00      -0.59   -1.81    0.02
#  17   -0.19   -1.48    0.97    0.82    0.12    0.00    0.00       0.24    3.59    0.52
#  18   -0.09   -0.31    0.03    0.31   -0.04    0.00    0.00      -0.11    2.65   -0.38
#  19    0.03   -0.23    0.01    0.05   -0.04    0.00    0.00      -0.17    0.49   -0.39
#  20    0.61   -0.12    0.00   -0.22   -0.02    0.00    0.00       0.26   -3.20   -0.28
#  21   -4.02   -0.27    0.00    1.33    0.20    0.00    0.00      -2.76   13.21    1.95
#  22    0.07   -0.16    0.00   -0.06   -0.04    0.00    0.00      -0.20   -0.62   -0.44
#  23    1.73   -0.36    0.02   -0.62   -0.07    0.00    0.00       0.70   -2.91   -0.31
#  24   -0.28   -0.65    0.05    0.10   -0.07    0.00    0.00      -0.87    0.42   -0.32
#  25   -2.39   -0.77    0.06    0.71   -0.11    0.00    0.00      -2.50    2.54   -0.41
#  26   -1.14   -1.17    0.15    0.11   -0.18    0.00    0.00      -2.23    0.29   -0.47
#  27   -3.44   -1.88    0.76    1.49   -0.18    0.00    0.00      -3.25    3.49   -0.42
#  28    3.34   -1.18    0.14   -1.11   -0.12    0.00    0.00       1.07   -2.89   -0.31
#  29   -6.66   -1.40    0.26    4.22    0.15    0.00    0.00      -3.42   10.02    0.36
#  30    0.36   -1.28    0.36   -0.02    0.01    0.00    0.00      -0.58   -0.06    0.03
#  31   -3.78   -0.81    0.06    2.34   -0.12    0.00    0.00      -2.31    8.06   -0.41
#  32   20.04   -1.56    0.88   -6.29   -0.06    0.00    0.00      13.02  -19.00   -0.17
#  33  -21.49   -1.58    1.46    6.93   -0.08    0.00    0.00     -14.75   28.26   -0.31
#  34  -36.59   -3.47    4.25   14.24   -0.25    0.00    0.00     -21.82   33.63   -0.59
#  35   -0.11   -0.24    0.02    0.05   -0.04    0.00    0.00      -0.32    0.50   -0.45
#  36   -0.26   -0.36    0.04    0.18   -0.06    0.00    0.00      -0.46    1.39   -0.46
#  37    0.10   -0.18    0.04   -0.01   -0.04    0.00    0.00      -0.08   -0.10   -0.28
#  38    0.07   -0.39    0.25   -0.02   -0.05    0.00    0.00      -0.15   -0.11   -0.26
#  39    0.08   -0.25    0.15   -0.02   -0.04    0.00    0.00      -0.07   -0.11   -0.26
#  40    0.09    0.00    0.00    0.00    0.00    0.00    0.00       0.09   -0.44   -0.22
#  41    0.10    0.00    0.00    0.00    0.00    0.00    0.00       0.09   -0.53   -0.28
#  42    0.06   -0.01    0.00   -0.01    0.00    0.00    0.00       0.04   -0.61   -0.28
#  43    0.16   -0.02    0.00   -0.01   -0.01    0.00    0.00       0.12   -0.70   -0.28
#  44    0.48    0.00    0.00   -0.04    0.01    0.00    0.00       0.45   -2.75    0.43
#  45    0.07   -0.09    0.01   -0.14   -0.02    0.00    0.00      -0.17   -1.56   -0.22
#  46    0.07   -0.18    0.03   -0.22   -0.05    0.00    0.00      -0.35   -1.17   -0.28
#  47    0.04   -0.08    0.01   -0.07   -0.02    0.00    0.00      -0.12   -0.94   -0.28
#  48    0.40   -0.05    0.00   -0.11   -0.01    0.00    0.00       0.23   -2.55   -0.22
#  49    0.81   -0.04    0.00   -0.03   -0.01    0.00    0.00       0.73   -0.82   -0.25
#  50    0.27   -0.02    0.00   -0.04   -0.01    0.00    0.00       0.20   -1.66   -0.22
#  51    0.19   -0.09    0.00   -0.11   -0.02    0.00    0.00      -0.02   -1.26   -0.22
#  52    0.21   -0.04    0.00   -0.03   -0.01    0.00    0.00       0.13   -0.97   -0.23
#  53    0.04   -0.03    0.00   -0.03   -0.01    0.00    0.00      -0.02   -0.95   -0.28
#  54    2.24   -0.10    0.00   -0.09   -0.02    0.00    0.00       2.03   -0.91   -0.20
#  55    0.29   -0.21    0.03   -0.28   -0.05    0.00    0.00      -0.22   -1.48   -0.27
#  56    1.08   -0.13    0.01   -0.35   -0.04    0.00    0.00       0.57   -2.29   -0.28
#  57    0.96   -0.26    0.04   -0.53   -0.08    0.00    0.00       0.12   -1.81   -0.28
#  58    1.30   -1.37    3.87   -0.96   -0.09    0.00    0.00       2.76   -2.41   -0.22
#  59    0.58   -0.46    0.11   -0.47   -0.10    0.00    0.00      -0.34   -1.27   -0.26
#  60    0.45   -1.03    1.63   -0.45   -0.09    0.00    0.00       0.51   -1.24   -0.26
#  61    1.45   -0.18    0.01   -0.35   -0.06    0.00    0.00       0.87   -1.72   -0.28
#  62    0.34   -0.09    0.02   -0.09   -0.03    0.00    0.00       0.15   -0.99   -0.28
#  63    0.27   -0.22    0.06   -0.18   -0.05    0.00    0.00      -0.12   -0.99   -0.28

@<TRIPOS>MOLECULE
      AVX101119_0        35
   63    66     0     0     0



@<TRIPOS>ATOM
      1 C1         11.6265   -16.7112   -27.4051 C.3        1           0.0267
      2 O1         10.7220   -17.1026   -28.4399 O.3        1          -0.3178
      3 C2         10.4144   -18.4237   -28.5234 C.ar       1           0.1324
      4 C3          9.5469   -18.8742   -29.5080 C.ar       1          -0.2113
      5 C4          9.2361   -20.2176   -29.5910 C.ar       1          -0.0594
      6 C5          9.7883   -21.1129   -28.6937 C.ar       1          -0.1447
      7 C6          9.4471   -22.5779   -28.7863 C.3        1           0.1669
      8 N1          8.2676   -22.8575   -27.9638 N.am       1          -0.7278
      9 C7          7.7769   -24.1108   -27.8931 C.2        1           0.5687
     10 O2          8.3132   -25.0093   -28.5122 O.2        1          -0.5238
     11 C8          6.5886   -24.3925   -27.0642 C.ar       1          -0.1460
     12 C9          5.4339   -24.9179   -27.6506 C.ar       1          -0.0700
     13 C10         4.3243   -25.1802   -26.8717 C.ar       1           0.0067
     14 C11         4.3574   -24.9203   -25.5007 C.ar       1           0.0623
     15 O3          3.1510   -25.2618   -24.9645 O.3        1          -0.3018
     16 C12         2.2438   -25.3469   -26.0790 C.3        1           0.2121
     17 O4          3.0957   -25.6839   -27.1897 O.3        1          -0.3108
     18 C13         5.5047   -24.3982   -24.9194 C.ar       1          -0.0790
     19 C14         6.6171   -24.1401   -25.6909 C.ar       1           0.0189
     20 C15         7.8625   -23.5797   -25.0536 C.3        1           0.1100
     21 N2          7.6392   -23.4059   -23.6122 N.3        1          -0.5128
     22 C16         6.8866   -22.1738   -23.3408 C.3        1           0.0172
     23 C17         8.9109   -23.4185   -22.8771 C.3        1           0.1078
     24 C18         9.3666   -24.8422   -22.6860 C.ar       1          -0.0148
     25 C19         8.4681   -25.8061   -22.2847 C.ar       1          -0.1739
     26 C20         8.8809   -27.1170   -22.1079 C.ar       1          -0.0927
     27 C21        10.1963   -27.4722   -22.3315 C.ar       1          -0.2344
     28 C22        11.1158   -26.5158   -22.7355 C.ar       1           0.1504
     29 O5         12.4080   -26.8631   -22.9551 O.3        1          -0.2673
     30 C23        12.7507   -27.2858   -24.2765 C.3        1           0.0229
     31 C24        10.7010   -25.1881   -22.9215 C.ar       1          -0.1465
     32 C25        11.6654   -24.1651   -23.3564 C.2        1           0.5249
     33 O6         11.8332   -23.9502   -24.5490 O.co2      1          -0.6663
     34 O7         12.2994   -23.5294   -22.5252 O.co2      1          -0.6792
     35 C26        10.6535   -20.6666   -27.7119 C.ar       1          -0.0583
     36 C27        10.9716   -19.3249   -27.6278 C.ar       1          -0.1531
     37 H1         11.7862   -15.6340   -27.4503 H          1           0.1000
     38 H2         11.2053   -16.9757   -26.4351 H          1           0.0562
     39 H3         12.5780   -17.2257   -27.5405 H          1           0.0559
     40 H4          9.1147   -18.1750   -30.2086 H          1           0.1288
     41 H5          8.5609   -20.5688   -30.3573 H          1           0.1276
     42 H6          9.2362   -22.8369   -29.8240 H          1           0.0789
     43 H7         10.2888   -23.1704   -28.4279 H          1           0.0761
     44 H8          7.8396   -22.1406   -27.4700 H          1           0.3995
     45 H9          5.4095   -25.1185   -28.7116 H          1           0.1319
     46 H10         1.5046   -26.1303   -25.9120 H          1           0.1295
     47 H11         1.7548   -24.3877   -26.2489 H          1           0.0814
     48 H12         5.5273   -24.1976   -23.8585 H          1           0.1621
     49 H13         8.6929   -24.2677   -25.2123 H          1           0.1058
     50 H14         8.0985   -22.6154   -25.5037 H          1           0.0644
     51 H15         6.7351   -22.0696   -22.2665 H          1           0.0582
     52 H16         7.4468   -21.3163   -23.7136 H          1           0.0668
     53 H17         5.9193   -22.2212   -23.8411 H          1           0.0175
     54 H18         9.6633   -22.8691   -23.4431 H          1           0.1230
     55 H19         8.7728   -22.9476   -21.9039 H          1           0.0164
     56 H20         7.4370   -25.5388   -22.1067 H          1           0.1096
     57 H21         8.1692   -27.8657   -21.7926 H          1           0.1109
     58 H22        10.5096   -28.4961   -22.1913 H          1           0.1159
     59 H23        13.8115   -27.5338   -24.3150 H          1           0.0441
     60 H24        12.1623   -28.1644   -24.5410 H          1           0.0441
     61 H25        12.5398   -26.4816   -24.9814 H          1           0.0919
     62 H26        11.0837   -21.3679   -27.0124 H          1           0.1344
     63 H27        11.6502   -18.9772   -26.8631 H          1           0.1328
@<TRIPOS>BOND
     1    1    2 1
     2    1   37 1
     3    1   38 1
     4    1   39 1
     5    2    3 1
     6    3   36 ar
     7    3    4 ar
     8    4    5 ar
     9    4   40 1
    10    5    6 ar
    11    5   41 1
    12    6    7 1
    13    6   35 ar
    14    7    8 1
    15    7   42 1
    16    7   43 1
    17    8    9 am
    18    8   44 1
    19    9   10 2
    20    9   11 1
    21   11   19 ar
    22   11   12 ar
    23   12   13 ar
    24   12   45 1
    25   13   17 1
    26   13   14 ar
    27   14   15 1
    28   14   18 ar
    29   15   16 1
    30   16   17 1
    31   16   46 1
    32   16   47 1
    33   18   19 ar
    34   18   48 1
    35   19   20 1
    36   20   21 1
    37   20   49 1
    38   20   50 1
    39   21   22 1
    40   21   23 1
    41   22   51 1
    42   22   52 1
    43   22   53 1
    44   23   24 1
    45   23   54 1
    46   23   55 1
    47   24   31 ar
    48   24   25 ar
    49   25   26 ar
    50   25   56 1
    51   26   27 ar
    52   26   57 1
    53   27   28 ar
    54   27   58 1
    55   28   29 1
    56   28   31 ar
    57   29   30 1
    58   30   59 1
    59   30   60 1
    60   30   61 1
    61   31   32 1
    62   32   33 1
    63   32   34 2
    64   35   36 ar
    65   35   62 1
    66   36   63 1
