AVX17379_0, 3
##########                 Name:           AVX17379_0
##########          Protonation:                   99
##########               SMILES:   Cc1cc(nn1c2ccccc2C[NH3+])CO
##########            Long Name:   [2-[3-(hydroxymethyl)-5-methyl-pyrazol-1-yl]phenyl]methylammonium
##########          FlexRecCode: 1
##########               Number:                  421
##########   Ligand Source File: /raid1/people/rgc/Examples/sampl4/screening/ligands/build_1//sampl4-hivint-00000
##########           GlobalRank: 137
##########                 Rank:                    1
##########               Setnum:                   47
##########             Matchnum:                 5202
##########                Cloud:                    1
##########        Electrostatic:           -14.706718
##########        Van der Waals:            -9.538930
##########  Ligand Polar Desolv:             6.809537
########## Ligand Apolar Desolv:             0.875030
##########      Internal Energy:             0.000000
##########      Receptor Energy: 0.0
########## Receptor Desolvation:             0.000000
########## Receptor Hydrophobic:             0.000000
##########         Total Energy: -16.56
##########        Ligand Charge:             1.000000
##########            Arbitrary:    +999.9990
##########     heavy atom count:   16
##########           pose count:    1
##########        Ligand Energy:             0.000000
# num electro vdwattr vdwrepu polsolv apolsol rdesolv rhydroe totalscore fullpol fullapo
#   1   -0.36   -0.35    0.03   -0.27   -0.03    0.00    0.00      -0.98   -1.64   -0.20
#   2    0.58   -0.60    0.03    0.35   -0.17    0.00    0.00       0.19    1.55   -0.74
#   3   -1.74   -1.38    0.23   -1.06   -0.15    0.00    0.00      -4.10   -3.29   -0.47
#   4    1.47   -1.34    0.23    0.26   -0.29    0.00    0.00       0.33    0.71   -0.79
#   5    2.64   -1.43    0.34    0.87   -0.07    0.00    0.00       2.35    1.89   -0.16
#   6   -8.93   -3.04    2.93   -3.49    0.88    0.00    0.00     -11.65   -6.60    1.67
#   7   -6.47   -1.21    0.36   -1.28    0.31    0.00    0.00      -8.29   -4.15    0.99
#   8   -3.98   -0.61    0.07   -1.05    0.12    0.00    0.00      -5.45   -4.99    0.57
#   9    0.88   -0.60    0.17    0.34   -0.10    0.00    0.00       0.70    2.13   -0.64
#  10   -0.39   -0.85    0.49   -0.35   -0.06    0.00    0.00      -1.16   -2.27   -0.39
#  11   -0.16   -0.66    0.27   -0.26   -0.07    0.00    0.00      -0.87   -1.76   -0.47
#  12   -0.22   -0.32    0.04   -0.27   -0.05    0.00    0.00      -0.83   -2.36   -0.47
#  13   -0.14   -0.23    0.02   -0.12   -0.04    0.00    0.00      -0.52   -1.31   -0.46
#  14   -0.37   -0.37    0.03   -0.33   -0.05    0.00    0.00      -1.09   -2.39   -0.37
#  15    0.05   -0.42    0.06    0.28   -0.08    0.00    0.00      -0.11    1.62   -0.48
#  16   -0.55   -1.94    1.87   -5.18    0.22    0.00    0.00      -5.59  -20.49    0.87
#  17   -5.70   -0.15    0.04    5.26    0.18    0.00    0.00      -0.37   17.49    0.59
#  18    0.63   -0.01    0.00    2.02    0.09    0.00    0.00       2.72   13.34    0.57
#  19    1.13   -0.04    0.00    4.53    0.15    0.00    0.00       5.78   17.17    0.58
#  20    0.26   -0.25    0.09    0.45   -0.05    0.00    0.00       0.51    2.59   -0.28
#  21    0.36   -0.05    0.00    0.05   -0.01    0.00    0.00       0.35    1.02   -0.28
#  22    0.14   -0.07    0.00    0.09   -0.01    0.00    0.00       0.14    1.16   -0.20
#  23    0.74   -0.66    0.36    0.39   -0.10    0.00    0.00       0.73    1.12   -0.28
#  24    1.86   -0.35    0.06    0.61   -0.09    0.00    0.00       2.09    1.91   -0.28
#  25    0.79   -1.02    1.15    0.30   -0.12    0.00    0.00       1.09    0.69   -0.28
#  26    1.11   -0.27    0.22    3.06    0.62    0.00    0.00       4.73    6.13    1.24
#  27    0.73   -0.14    0.05    0.16   -0.03    0.00    0.00       0.76    1.19   -0.25
#  28    0.35   -0.10    0.02    0.17   -0.03    0.00    0.00       0.41    1.75   -0.28
#  29    0.24   -0.04    0.00    0.10   -0.01    0.00    0.00       0.30    2.68   -0.28
#  30    0.22   -0.02    0.00    0.12   -0.01    0.00    0.00       0.32    5.65   -0.28
#  31   -0.05   -0.15    0.02    0.92   -0.04    0.00    0.00       0.70    6.71   -0.28
#  32    0.18   -0.07    0.00    0.16   -0.01    0.00    0.00       0.26    2.60   -0.21

@<TRIPOS>MOLECULE
       AVX17379_0        99
   32    33     0     0     0



@<TRIPOS>ATOM
      1 C1         10.6908   -26.0038   -27.9112 C.3        1          -0.1045
      2 C2         11.7112   -25.9611   -26.8031 C.2        1           0.0838
      3 C3         12.0175   -26.9749   -25.9607 C.2        1          -0.2251
      4 C4         13.0117   -26.5228   -25.0861 C.2        1           0.0977
      5 C5         13.6490   -27.3267   -23.9821 C.3        1           0.1532
      6 O1         15.0648   -27.1347   -24.0093 O.3        1          -0.5653
      7 N1         13.2930   -25.2818   -25.3918 N.2        1          -0.2997
      8 N2         12.4894   -24.9048   -26.4756 N.pl3      1          -0.3545
      9 C6         12.4902   -23.6534   -27.1074 C.ar       1           0.1772
     10 C7         11.6500   -22.6449   -26.6543 C.ar       1          -0.1171
     11 C8         11.6534   -21.4130   -27.2786 C.ar       1          -0.0639
     12 C9         12.4919   -21.1832   -28.3534 C.ar       1          -0.1088
     13 C10        13.3300   -22.1855   -28.8070 C.ar       1          -0.0724
     14 C11        13.3350   -23.4181   -28.1836 C.ar       1          -0.1579
     15 C12        14.2524   -24.5082   -28.6746 C.3        1           0.0379
     16 N3         15.5358   -24.4247   -27.9649 N.4        1          -0.6350
     17 H1         16.1501   -25.1544   -28.2937 H          1           0.4394
     18 H2         15.9588   -23.5253   -28.1392 H          1           0.4291
     19 H3         15.3803   -24.5368   -26.9743 H          1           0.4342
     20 H4         10.2208   -26.9871   -27.9344 H          1           0.0831
     21 H5          9.9312   -25.2422   -27.7353 H          1           0.0985
     22 H6         11.1822   -25.8135   -28.8653 H          1           0.0785
     23 H7         11.5728   -27.9591   -25.9629 H          1           0.1649
     24 H8         13.2561   -26.9978   -23.0200 H          1           0.0718
     25 H9         13.4227   -28.3833   -24.1249 H          1           0.0762
     26 H10        15.4826   -27.4064   -24.8378 H          1           0.3983
     27 H11        10.9944   -22.8237   -25.8151 H          1           0.1429
     28 H12        10.9999   -20.6283   -26.9269 H          1           0.1478
     29 H13        12.4913   -20.2195   -28.8413 H          1           0.1458
     30 H14        13.9838   -22.0032   -29.6472 H          1           0.1447
     31 H15        13.7956   -25.4797   -28.4864 H          1           0.1456
     32 H16        14.4204   -24.3869   -29.7448 H          1           0.1535
@<TRIPOS>BOND
     1    1    2 1
     2    1   20 1
     3    1   21 1
     4    1   22 1
     5    2    8 1
     6    2    3 2
     7    3    4 1
     8    3   23 1
     9    4    5 1
    10    4    7 2
    11    5    6 1
    12    5   24 1
    13    5   25 1
    14    6   26 1
    15    7    8 1
    16    8    9 1
    17    9   14 ar
    18    9   10 ar
    19   10   11 ar
    20   10   27 1
    21   11   12 ar
    22   11   28 1
    23   12   13 ar
    24   12   29 1
    25   13   14 ar
    26   13   30 1
    27   14   15 1
    28   15   16 1
    29   15   31 1
    30   15   32 1
    31   16   17 1
    32   16   18 1
    33   16   19 1
