AVX101140_0, 3
##########                 Name:          AVX101140_0
##########          Protonation:                  100
##########               SMILES:   c1cc2c(cc1Br)C(=O)C(=O)N2Cc3ccc4c(c3C(=O)[O-])OCCO4
##########            Long Name:   mo-2,3-dioxo-indolin-1-yl)methyl]-2,3-dihydro-1,4-benzodioxine-5-carboxylate
##########          FlexRecCode: 1
##########               Number:                  170
##########   Ligand Source File: /raid1/people/rgc/Examples/sampl4/screening/ligands/build_1//sampl4-hivint-00000
##########           GlobalRank: 38
##########                 Rank:                    1
##########               Setnum:                    1
##########             Matchnum:                14832
##########                Cloud:                    1
##########        Electrostatic:           -48.410130
##########        Van der Waals:           -11.214419
##########  Ligand Polar Desolv:            22.370163
########## Ligand Apolar Desolv:            -2.943276
##########      Internal Energy:             0.000000
##########      Receptor Energy: 0.0
########## Receptor Desolvation:             0.000000
########## Receptor Hydrophobic:             0.000000
##########         Total Energy: -40.2
##########        Ligand Charge:            -1.000000
##########            Arbitrary:    +999.9990
##########     heavy atom count:   26
##########           pose count:    1
##########        Ligand Energy:             0.000000
# num electro vdwattr vdwrepu polsolv apolsol rdesolv rhydroe totalscore fullpol fullapo
#   1  -38.97   -4.36    6.37   12.29   -0.15    0.00    0.00     -24.83   26.19   -0.33
#   2   24.11   -2.89    2.98   -7.41   -0.07    0.00    0.00      16.72  -17.35   -0.17
#   3  -30.04   -4.99    5.62   14.30   -0.30    0.00    0.00     -15.40   28.60   -0.59
#   4   -3.84   -0.93    0.14    1.81   -0.12    0.00    0.00      -2.94    6.14   -0.41
#   5    2.34   -0.88    0.09   -0.49   -0.09    0.00    0.00       0.98   -1.65   -0.30
#   6   -8.15   -1.39    0.39    3.30    0.10    0.00    0.00      -5.73    8.51    0.27
#   7    0.22   -1.43    0.37    0.09   -0.06    0.00    0.00      -0.82    0.20   -0.14
#   8    0.13   -1.92    1.38   -0.10   -0.06    0.00    0.00      -0.57   -0.24   -0.14
#   9   -2.34   -1.34    0.24    1.43    0.23    0.00    0.00      -1.78    4.24    0.68
#  10    0.33   -0.72    0.04   -0.18   -0.08    0.00    0.00      -0.60   -0.66   -0.30
#  11   -1.05   -0.47    0.02    0.19   -0.09    0.00    0.00      -1.40    1.01   -0.46
#  12   -1.44   -0.32    0.01    0.24   -0.05    0.00    0.00      -1.57    2.00   -0.42
#  13   -1.37   -0.47    0.02    0.29   -0.08    0.00    0.00      -1.61    1.53   -0.41
#  14    3.03   -0.38    0.02   -1.03   -0.08    0.00    0.00       1.56   -4.48   -0.33
#  15   -5.64   -0.46    0.02    1.59    0.16    0.00    0.00      -4.33    9.03    0.92
#  16    2.41   -0.28    0.01   -0.91   -0.06    0.00    0.00       1.15   -8.35   -0.58
#  17   -1.28   -0.15    0.00    0.67    0.03    0.00    0.00      -0.73   11.30    0.43
#  18    1.07   -0.37    0.02   -0.79   -0.05    0.00    0.00      -0.12   -5.82   -0.35
#  19   -0.32   -0.22    0.00    0.58    0.04    0.00    0.00       0.09    5.93    0.43
#  20   -1.07   -0.77    0.11    0.56   -0.11    0.00    0.00      -1.28    2.34   -0.44
#  21    2.28   -0.74    0.06   -0.54   -0.18    0.00    0.00       0.88   -2.17   -0.72
#  22   -1.99   -1.25    0.27    0.45   -0.15    0.00    0.00      -2.67    1.34   -0.45
#  23   -0.12   -1.83    0.83   -0.08   -0.19    0.00    0.00      -1.39   -0.19   -0.46
#  24   -0.83   -1.66    0.39    0.27   -0.12    0.00    0.00      -1.95    0.70   -0.30
#  25   -0.23   -6.79    5.10   -0.03   -0.51    0.00    0.00      -2.47   -0.07   -1.10
#  26    0.07   -1.42    0.57   -0.10   -0.14    0.00    0.00      -1.02   -0.34   -0.46
#  27    1.85   -0.53    0.22   -0.87   -0.12    0.00    0.00       0.55   -1.97   -0.28
#  28    1.02   -0.77    0.73   -0.45   -0.11    0.00    0.00       0.42   -1.20   -0.28
#  29    0.43   -0.56    0.60   -0.24   -0.08    0.00    0.00       0.15   -0.85   -0.28
#  30   -0.15   -1.50    3.65   -0.59   -0.13    0.00    0.00       1.28   -1.26   -0.28
#  31    0.71   -0.10    0.00   -0.27   -0.03    0.00    0.00       0.30   -2.34   -0.28
#  32    0.79   -0.04    0.00   -0.11   -0.01    0.00    0.00       0.63   -2.39   -0.21
#  33    3.03   -0.23    0.03   -0.58   -0.05    0.00    0.00       2.19   -2.43   -0.22
#  34    1.71   -0.08    0.00   -0.13   -0.02    0.00    0.00       1.48   -1.51   -0.25
#  35    3.01   -0.27    0.07   -0.37   -0.07    0.00    0.00       2.38   -1.51   -0.27
#  36    1.66   -0.82    1.92   -0.25   -0.11    0.00    0.00       2.40   -0.65   -0.28
#  37    0.23   -0.26    0.08   -0.18   -0.05    0.00    0.00      -0.18   -0.91   -0.28

@<TRIPOS>MOLECULE
      AVX101140_0       100
   37    40     0     0     0



@<TRIPOS>ATOM
      1 O1         12.4819   -23.0745   -22.1754 O.co2      1          -0.6868
      2 C1         11.8111   -24.0935   -22.0830 C.2        1           0.5238
      3 O2         11.6282   -24.6082   -20.9882 O.co2      1          -0.6590
      4 C2         11.2192   -24.6968   -23.2878 C.ar       1          -0.1255
      5 C3         11.9294   -25.6653   -24.0128 C.ar       1           0.0909
      6 O3         13.1683   -26.0343   -23.5980 O.3        1          -0.2561
      7 C4         13.6857   -27.2606   -24.1254 C.3        1           0.0131
      8 C5         13.4377   -27.2752   -25.6398 C.3        1           0.0202
      9 O4         12.0270   -27.1760   -25.8638 O.3        1          -0.3129
     10 C6         11.3594   -26.2302   -25.1473 C.ar       1           0.0245
     11 C7         10.0970   -25.8319   -25.5582 C.ar       1          -0.1102
     12 C8          9.3960   -24.8744   -24.8440 C.ar       1          -0.1302
     13 C9          9.9431   -24.3112   -23.7125 C.ar       1          -0.0716
     14 C10         9.1704   -23.2763   -22.9361 C.3        1           0.1736
     15 N1          7.7852   -23.7235   -22.7706 N.am       1          -0.5425
     16 C11         6.7136   -23.0553   -23.2310 C.2        1           0.4872
     17 O5          6.7300   -22.0053   -23.8386 O.2        1          -0.4322
     18 C12         5.4942   -23.8444   -22.8570 C.2        1           0.3951
     19 O6          4.3353   -23.5727   -23.0935 O.2        1          -0.3741
     20 C13         6.0131   -25.0231   -22.1385 C.ar       1          -0.2442
     21 C14         7.4120   -24.8987   -22.1212 C.ar       1           0.2275
     22 C15         8.1684   -25.8861   -21.5044 C.ar       1          -0.1414
     23 C16         7.5479   -26.9752   -20.9209 C.ar       1          -0.0115
     24 C17         6.1682   -27.0981   -20.9425 C.ar       1          -0.1410
     25 Br1         5.3405   -28.5959   -20.1380 Br         1          -0.0427
     26 C18         5.3962   -26.1227   -21.5431 C.ar       1           0.0241
     27 H1         14.7558   -27.3234   -23.9276 H          1           0.1167
     28 H2         13.1754   -28.1046   -23.6612 H          1           0.0708
     29 H3         13.9439   -26.4284   -26.1034 H          1           0.0729
     30 H4         13.8128   -28.2062   -26.0648 H          1           0.1151
     31 H5          9.6570   -26.2708   -26.4415 H          1           0.1267
     32 H6          8.4132   -24.5713   -25.1733 H          1           0.1120
     33 H7          9.6281   -23.1408   -21.9561 H          1           0.1225
     34 H8          9.1846   -22.3303   -23.4776 H          1           0.1223
     35 H9          9.2450   -25.8035   -21.4807 H          1           0.1503
     36 H10         8.1450   -27.7381   -20.4434 H          1           0.1474
     37 H11         4.3206   -26.2171   -21.5614 H          1           0.1452
@<TRIPOS>BOND
     1    1    2 1
     2    2    3 2
     3    2    4 1
     4    4   13 ar
     5    4    5 ar
     6    5   10 ar
     7    5    6 1
     8    6    7 1
     9    7    8 1
    10    7   27 1
    11    7   28 1
    12    8    9 1
    13    8   29 1
    14    8   30 1
    15    9   10 1
    16   10   11 ar
    17   11   12 ar
    18   11   31 1
    19   12   13 ar
    20   12   32 1
    21   13   14 1
    22   14   15 1
    23   14   33 1
    24   14   34 1
    25   15   21 1
    26   15   16 am
    27   16   17 2
    28   16   18 1
    29   18   19 2
    30   18   20 1
    31   20   26 ar
    32   20   21 ar
    33   21   22 ar
    34   22   23 ar
    35   22   35 1
    36   23   24 ar
    37   23   36 1
    38   24   25 1
    39   24   26 ar
    40   26   37 1
