AVX17389_0, 3
##########                 Name:           AVX17389_0
##########          Protonation:                  100
##########               SMILES:   c1cc(c2c(c1)OCO2)C(=O)NCC(=O)[O-]
##########            Long Name:   2-(1,3-benzodioxole-4-carbonylamino)acetate
##########          FlexRecCode: 1
##########               Number:                  167
##########   Ligand Source File: /raid1/people/rgc/Examples/sampl4/screening/ligands/build_1//sampl4-hivint-00000
##########           GlobalRank: 93
##########                 Rank:                    1
##########               Setnum:                    7
##########             Matchnum:                12718
##########                Cloud:                    1
##########        Electrostatic:           -54.734482
##########        Van der Waals:            -1.831256
##########  Ligand Polar Desolv:            23.382473
########## Ligand Apolar Desolv:            -1.233858
##########      Internal Energy:             0.000000
##########      Receptor Energy: 0.0
########## Receptor Desolvation:             0.000000
########## Receptor Hydrophobic:             0.000000
##########         Total Energy: -34.42
##########        Ligand Charge:            -1.000000
##########            Arbitrary:    +999.9990
##########     heavy atom count:   16
##########           pose count:    1
##########        Ligand Energy:             0.000000
# num electro vdwattr vdwrepu polsolv apolsol rdesolv rhydroe totalscore fullpol fullapo
#   1  -42.77   -5.89   17.17   10.39   -0.18    0.00    0.00     -21.27   24.09   -0.41
#   2   24.25   -3.35    2.82   -7.18   -0.08    0.00    0.00      16.47  -15.23   -0.17
#   3  -35.92   -4.23    3.84   17.10   -0.26    0.00    0.00     -19.48   27.98   -0.43
#   4    1.59   -0.96    0.18   -0.98   -0.18    0.00    0.00      -0.35   -2.53   -0.47
#   5  -19.09   -1.35    0.37    5.65    0.82    0.00    0.00     -13.60   16.02    2.31
#   6    9.37   -0.94    0.19   -3.09   -0.17    0.00    0.00       5.36  -12.11   -0.65
#   7   -6.24   -0.50    0.02    3.28   -0.01    0.00    0.00      -3.44   15.91   -0.03
#   8   -1.50   -1.00    0.14    0.92   -0.13    0.00    0.00      -1.57    2.99   -0.41
#   9    1.08   -0.95    0.10   -0.21   -0.11    0.00    0.00      -0.10   -0.65   -0.32
#  10   -3.30   -0.77    0.06    1.81    0.11    0.00    0.00      -2.10    5.92    0.35
#  11    1.04   -1.85    0.97   -0.71    0.01    0.00    0.00      -0.54   -1.82    0.02
#  12   -1.21   -2.91    1.72    1.47    0.24    0.00    0.00      -0.68    3.20    0.52
#  13    0.11   -1.78    0.73   -0.02   -0.13    0.00    0.00      -1.09   -0.05   -0.33
#  14   -0.54   -1.77    0.60    0.07   -0.21    0.00    0.00      -1.85    0.15   -0.47
#  15   -0.94   -2.18    0.98    0.16   -0.20    0.00    0.00      -2.19    0.38   -0.47
#  16   -0.77   -1.93    0.60    0.36   -0.17    0.00    0.00      -1.91    0.94   -0.44
#  17    1.96   -0.47    0.22   -0.73   -0.10    0.00    0.00       0.88   -1.99   -0.28
#  18    1.60   -0.17    0.03   -0.40   -0.05    0.00    0.00       1.01   -2.03   -0.28
#  19   13.06   -0.02    0.00   -2.59    0.11    0.00    0.00      10.55   -9.02    0.37
#  20    0.36   -0.76    0.81   -0.42   -0.10    0.00    0.00      -0.11   -1.16   -0.28
#  21    0.38   -1.12    2.01   -0.38   -0.12    0.00    0.00       0.77   -0.93   -0.28
#  22    0.56   -0.32    0.05   -0.22   -0.10    0.00    0.00      -0.03   -0.60   -0.28
#  23    1.07   -0.71    0.34   -0.22   -0.12    0.00    0.00       0.36   -0.50   -0.28
#  24    1.11   -0.79    0.93   -0.66   -0.08    0.00    0.00       0.50   -1.73   -0.22

@<TRIPOS>MOLECULE
       AVX17389_0       100
   24    25     0     0     0



@<TRIPOS>ATOM
      1 O1         12.7239   -23.4457   -22.6367 O.co2      1          -0.6923
      2 C1         11.9794   -22.7148   -22.0057 C.2        1           0.4913
      3 O2         12.4383   -21.9401   -21.1836 O.co2      1          -0.6870
      4 C2         10.4926   -22.7646   -22.2462 C.3        1           0.0506
      5 N1          9.9957   -24.1118   -21.9558 N.am       1          -0.6918
      6 C3          8.6856   -24.3928   -22.1017 C.2        1           0.5422
      7 O3          7.9162   -23.5283   -22.4743 O.2        1          -0.5423
      8 C4          8.1853   -25.7497   -21.8092 C.ar       1          -0.1102
      9 C5          8.6814   -26.8496   -22.5162 C.ar       1           0.0931
     10 O4          9.6082   -26.9619   -23.5046 O.3        1          -0.2807
     11 C6          9.3780   -28.2289   -24.1388 C.3        1           0.2068
     12 O5          8.8448   -29.0036   -23.0542 O.3        1          -0.3101
     13 C7          8.2019   -28.1266   -22.2324 C.ar       1           0.0153
     14 C8          7.2389   -28.3017   -21.2547 C.ar       1          -0.0815
     15 C9          6.7469   -27.2119   -20.5551 C.ar       1          -0.1182
     16 C10         7.2168   -25.9440   -20.8199 C.ar       1          -0.0756
     17 H1          9.9950   -22.0456   -21.5954 H          1           0.0679
     18 H2         10.2844   -22.5170   -23.2872 H          1           0.0679
     19 H3         10.6095   -24.8014   -21.6586 H          1           0.4071
     20 H4          8.6513   -28.1352   -24.9457 H          1           0.1320
     21 H5         10.3112   -28.6583   -24.5032 H          1           0.0845
     22 H6          6.8687   -29.2925   -21.0363 H          1           0.1376
     23 H7          5.9949   -27.3578   -19.7938 H          1           0.1449
     24 H8          6.8327   -25.0994   -20.2670 H          1           0.1484
@<TRIPOS>BOND
     1    1    2 1
     2    2    3 2
     3    2    4 1
     4    4    5 1
     5    4   17 1
     6    4   18 1
     7    5    6 am
     8    5   19 1
     9    6    7 2
    10    6    8 1
    11    8   16 ar
    12    8    9 ar
    13    9   13 ar
    14    9   10 1
    15   10   11 1
    16   11   12 1
    17   11   20 1
    18   11   21 1
    19   12   13 1
    20   13   14 ar
    21   14   15 ar
    22   14   22 1
    23   15   16 ar
    24   15   23 1
    25   16   24 1
