AVX17377_0, 3
##########                 Name:           AVX17377_0
##########          Protonation:                  100
##########               SMILES:   c1ccc2c(c1)CC(=O)N2Cc3ccc4c(c3C(=O)[O-])OCO4
##########            Long Name:   5-[(2-oxoindolin-1-yl)methyl]-1,3-benzodioxole-4-carboxylate
##########          FlexRecCode: 1
##########               Number:                  233
##########   Ligand Source File: /raid1/people/rgc/Examples/sampl4/screening/ligands/build_1//sampl4-hivint-00000
##########           GlobalRank: 24
##########                 Rank:                    1
##########               Setnum:                    7
##########             Matchnum:                 3809
##########                Cloud:                    1
##########        Electrostatic:           -42.632626
##########        Van der Waals:           -21.602074
##########  Ligand Polar Desolv:            25.895224
########## Ligand Apolar Desolv:            -3.020831
##########      Internal Energy:             0.000000
##########      Receptor Energy: 0.0
########## Receptor Desolvation:             0.000000
########## Receptor Hydrophobic:             0.000000
##########         Total Energy: -41.36
##########        Ligand Charge:            -1.000000
##########            Arbitrary:    +999.9990
##########     heavy atom count:   23
##########           pose count:    1
##########        Ligand Energy:             0.000000
# num electro vdwattr vdwrepu polsolv apolsol rdesolv rhydroe totalscore fullpol fullapo
#   1  -32.31   -4.29    2.31   15.47   -0.17    0.00    0.00     -18.99   28.40   -0.32
#   2   20.03   -2.11    0.57   -8.25   -0.08    0.00    0.00      10.17  -18.64   -0.17
#   3  -28.31   -1.74    0.69   12.34   -0.22    0.00    0.00     -17.24   31.08   -0.56
#   4   -2.81   -1.65    0.58    2.32   -0.15    0.00    0.00      -1.72    6.44   -0.41
#   5    1.18   -1.31    0.26   -0.30   -0.10    0.00    0.00      -0.27   -0.98   -0.32
#   6   -4.03   -1.78    1.00    2.96    0.11    0.00    0.00      -1.74    9.15    0.34
#   7    0.66   -0.50    0.06   -0.65    0.00    0.00    0.00      -0.43   -2.92    0.02
#   8   -0.55   -0.45    0.02    0.97    0.10    0.00    0.00       0.09    4.79    0.52
#   9    0.01   -0.77    0.06   -0.10   -0.08    0.00    0.00      -0.87   -0.38   -0.33
#  10   -0.59   -0.81    0.08    0.14   -0.11    0.00    0.00      -1.30    0.59   -0.47
#  11   -1.28   -1.13    0.21    0.49   -0.12    0.00    0.00      -1.82    1.75   -0.42
#  12   -1.14   -1.72    1.24    0.49   -0.12    0.00    0.00      -1.25    1.60   -0.41
#  13    3.83   -1.31    0.91   -1.92   -0.12    0.00    0.00       1.40   -5.13   -0.32
#  14   -9.34   -0.83    0.04    3.36    0.30    0.00    0.00      -6.47   10.25    0.91
#  15    5.26   -0.86    0.14   -2.17   -0.16    0.00    0.00       2.20   -8.06   -0.59
#  16   -3.71   -0.93    0.34    3.17    0.10    0.00    0.00      -1.02   12.76    0.42
#  17   -0.82   -0.89    0.16    0.16   -0.10    0.00    0.00      -1.48    0.50   -0.30
#  18   -1.86   -1.51    0.42    0.33   -0.14    0.00    0.00      -2.76    1.01   -0.43
#  19   -0.69   -2.74    1.81    0.04   -0.18    0.00    0.00      -1.76    0.11   -0.47
#  20   -2.14   -2.36    0.82    0.16   -0.21    0.00    0.00      -3.73    0.37   -0.47
#  21   -2.32   -2.17    0.85    0.34   -0.22    0.00    0.00      -3.51    0.74   -0.47
#  22   -4.07   -2.01    0.84    1.08   -0.20    0.00    0.00      -4.35    2.49   -0.45
#  23    3.16   -1.10    0.13   -0.36   -0.26    0.00    0.00       1.57   -0.97   -0.70
#  24    0.24   -0.20    0.03   -0.35   -0.04    0.00    0.00      -0.32   -2.31   -0.28
#  25    0.21   -0.06    0.00   -0.09   -0.02    0.00    0.00       0.04   -1.69   -0.28
#  26    0.30   -0.12    0.01   -0.31   -0.04    0.00    0.00      -0.16   -2.43   -0.28
#  27    0.92   -0.21    0.03   -0.57   -0.04    0.00    0.00       0.12   -2.74   -0.21
#  28    3.54   -0.81    1.25   -0.78   -0.09    0.00    0.00       3.11   -2.01   -0.22
#  29    2.14   -0.47    0.23   -0.43   -0.09    0.00    0.00       1.39   -1.23   -0.25
#  30    0.28   -0.66    0.39   -0.38   -0.11    0.00    0.00      -0.47   -0.98   -0.28
#  31    0.74   -0.16    0.01   -0.16   -0.05    0.00    0.00       0.38   -0.89   -0.28
#  32    0.50   -0.90    0.91   -0.04   -0.10    0.00    0.00       0.36   -0.10   -0.28
#  33    0.88   -0.85    0.92   -0.09   -0.12    0.00    0.00       0.74   -0.22   -0.28
#  34    4.38   -0.78    0.83   -0.41   -0.11    0.00    0.00       3.91   -1.04   -0.28
#  35    5.06   -0.90    1.32   -0.56   -0.11    0.00    0.00       4.81   -1.36   -0.27

@<TRIPOS>MOLECULE
       AVX17377_0       100
   35    38     0     0     0



@<TRIPOS>ATOM
      1 O1         11.4881   -23.0453   -20.6041 O.co2      1          -0.6814
      2 C1         10.9171   -23.2066   -21.6740 C.2        1           0.5222
      3 O2         11.5682   -23.3901   -22.6934 O.co2      1          -0.6669
      4 C2          9.4466   -23.1861   -21.7336 C.ar       1          -0.1169
      5 C3          8.7680   -21.9823   -21.9671 C.ar       1           0.0796
      6 O3          9.2202   -20.7140   -22.1682 O.3        1          -0.2761
      7 C4          8.1150   -19.9990   -22.7520 C.3        1           0.2050
      8 O4          6.9568   -20.6975   -22.2579 O.3        1          -0.3173
      9 C5          7.3764   -21.9752   -22.0216 C.ar       1           0.0027
     10 C6          6.6721   -23.1542   -21.8458 C.ar       1          -0.0989
     11 C7          7.3431   -24.3442   -21.6151 C.ar       1          -0.1229
     12 C8          8.7191   -24.3692   -21.5632 C.ar       1          -0.0587
     13 C9          9.4407   -25.6694   -21.3183 C.3        1           0.1724
     14 N1          9.7261   -26.3185   -22.6002 N.am       1          -0.5493
     15 C10         8.7801   -26.6839   -23.4818 C.2        1           0.5197
     16 O5          7.5828   -26.5372   -23.3558 O.2        1          -0.4955
     17 C11         9.4899   -27.3130   -24.6618 C.3        1          -0.1133
     18 C12        10.9537   -27.2362   -24.2937 C.ar       1          -0.1511
     19 C13        12.1035   -27.6344   -24.9378 C.ar       1          -0.0686
     20 C14        13.3352   -27.4297   -24.3411 C.ar       1          -0.1498
     21 C15        13.4060   -26.8254   -23.0991 C.ar       1          -0.0840
     22 C16        12.2556   -26.4259   -22.4513 C.ar       1          -0.1346
     23 C17        11.0119   -26.6228   -23.0487 C.ar       1           0.1577
     24 H1          8.1093   -18.9622   -22.4159 H          1           0.1248
     25 H2          8.1578   -20.0498   -23.8399 H          1           0.0764
     26 H3          5.5930   -23.1461   -21.8883 H          1           0.1265
     27 H4          6.7840   -25.2580   -21.4788 H          1           0.1217
     28 H5         10.3761   -25.4726   -20.7945 H          1           0.1149
     29 H6          8.8149   -26.3236   -20.7111 H          1           0.1169
     30 H7          9.1808   -28.3511   -24.7841 H          1           0.1196
     31 H8          9.2946   -26.7456   -25.5717 H          1           0.1190
     32 H9         12.0442   -28.1062   -25.9075 H          1           0.1247
     33 H10        14.2389   -27.7414   -24.8438 H          1           0.1250
     34 H11        14.3674   -26.6658   -22.6336 H          1           0.1276
     35 H12        12.3190   -25.9550   -21.4815 H          1           0.1288
@<TRIPOS>BOND
     1    1    2 1
     2    2    3 2
     3    2    4 1
     4    4   12 ar
     5    4    5 ar
     6    5    9 ar
     7    5    6 1
     8    6    7 1
     9    7    8 1
    10    7   24 1
    11    7   25 1
    12    8    9 1
    13    9   10 ar
    14   10   11 ar
    15   10   26 1
    16   11   12 ar
    17   11   27 1
    18   12   13 1
    19   13   14 1
    20   13   28 1
    21   13   29 1
    22   14   23 1
    23   14   15 am
    24   15   16 2
    25   15   17 1
    26   17   18 1
    27   17   30 1
    28   17   31 1
    29   18   23 ar
    30   18   19 ar
    31   19   20 ar
    32   19   32 1
    33   20   21 ar
    34   20   33 1
    35   21   22 ar
    36   21   34 1
    37   22   23 ar
    38   22   35 1
