AVX17260_0, 3
##########                 Name:           AVX17260_0
##########          Protonation:                  100
##########               SMILES:   c1ccc2c(c1)[C@H](C(=O)N2)Cc3ccc4c(c3C(=O)[O-])OCO4
##########            Long Name:   5-[[(3R)-2-oxoindolin-3-yl]methyl]-1,3-benzodioxole-4-carboxylate
##########          FlexRecCode: 1
##########               Number:                   61
##########   Ligand Source File: /raid1/people/rgc/Examples/sampl4/screening/ligands/build_1//sampl4-hivint-00000
##########           GlobalRank: 46
##########                 Rank:                    1
##########               Setnum:                    2
##########             Matchnum:                18612
##########                Cloud:                    1
##########        Electrostatic:           -41.504471
##########        Van der Waals:           -20.754452
##########  Ligand Polar Desolv:            25.146992
########## Ligand Apolar Desolv:            -2.202693
##########      Internal Energy:             0.000000
##########      Receptor Energy: 0.0
########## Receptor Desolvation:             0.000000
########## Receptor Hydrophobic:             0.000000
##########         Total Energy: -39.31
##########        Ligand Charge:            -1.000000
##########            Arbitrary:    +999.9990
##########     heavy atom count:   23
##########           pose count:    1
##########        Ligand Energy:             0.000000
# num electro vdwattr vdwrepu polsolv apolsol rdesolv rhydroe totalscore fullpol fullapo
#   1  -30.52   -2.97    1.54   14.61   -0.20    0.00    0.00     -17.54   30.95   -0.42
#   2   18.83   -1.56    0.30   -8.25   -0.04    0.00    0.00       9.27  -20.31   -0.11
#   3  -24.89   -2.01    0.84   13.04   -0.16    0.00    0.00     -13.17   31.41   -0.39
#   4   -1.79   -0.69    0.05    1.54   -0.11    0.00    0.00      -1.00    5.72   -0.40
#   5    0.65   -0.87    0.14    0.13   -0.08    0.00    0.00      -0.04    0.53   -0.33
#   6   -4.45   -2.31    1.42    3.58    0.17    0.00    0.00      -1.59   10.07    0.48
#   7    1.45   -2.07    1.83   -1.14    0.01    0.00    0.00       0.07   -3.23    0.02
#   8   -1.52   -0.65    0.08    1.24    0.12    0.00    0.00      -0.73    5.36    0.52
#   9    0.18   -0.47    0.02   -0.10   -0.06    0.00    0.00      -0.44   -0.53   -0.33
#  10   -0.79   -0.43    0.03    0.17   -0.07    0.00    0.00      -1.08    1.15   -0.47
#  11   -0.82   -0.36    0.01    0.15   -0.05    0.00    0.00      -1.07    1.13   -0.39
#  12   -1.12   -0.40    0.01    0.30   -0.05    0.00    0.00      -1.26    1.86   -0.32
#  13   -0.93   -0.40    0.06    0.16   -0.03    0.00    0.00      -1.15    0.83   -0.18
#  14   -1.40   -0.46    0.02    0.58   -0.05    0.00    0.00      -1.31    2.14   -0.20
#  15    6.06   -0.96    0.11   -3.00   -0.20    0.00    0.00       2.02   -9.92   -0.66
#  16   -2.85   -0.59    0.03    2.65    0.09    0.00    0.00      -0.66   11.01    0.38
#  17   -7.79   -2.30    1.56    2.86    0.70    0.00    0.00      -4.96    7.37    1.81
#  18    2.90   -1.78    0.33   -0.65   -0.33    0.00    0.00       0.48   -1.51   -0.76
#  19   -3.24   -2.55    0.75    0.32   -0.28    0.00    0.00      -4.99    0.56   -0.48
#  20   -2.34   -3.47    1.85    0.16   -0.27    0.00    0.00      -4.08    0.27   -0.47
#  21   -3.65   -3.29    1.68    0.68   -0.25    0.00    0.00      -4.83    1.27   -0.47
#  22   -1.41   -1.73    0.40    0.84   -0.20    0.00    0.00      -2.09    1.96   -0.47
#  23   -2.73   -1.25    0.17    1.21   -0.14    0.00    0.00      -2.75    3.35   -0.39
#  24    0.96   -0.99    1.43   -1.04   -0.12    0.00    0.00       0.25   -2.48   -0.28
#  25    0.20   -1.13    2.31   -0.69   -0.11    0.00    0.00       0.59   -1.81   -0.28
#  26    0.47   -0.13    0.03   -0.35   -0.04    0.00    0.00      -0.02   -2.62   -0.28
#  27    0.84   -0.07    0.00   -0.20   -0.02    0.00    0.00       0.55   -2.80   -0.28
#  28    0.96   -0.09    0.01   -0.24   -0.03    0.00    0.00       0.62   -2.53   -0.27
#  29    3.66   -0.31    0.22   -0.19   -0.05    0.00    0.00       3.32   -0.89   -0.25
#  30    1.50   -0.14    0.01   -0.15   -0.03    0.00    0.00       1.18   -1.05   -0.23
#  31    1.20   -0.14    0.05   -1.30    0.23    0.00    0.00       0.03   -3.42    0.59
#  32    2.04   -0.51    0.10   -0.30   -0.15    0.00    0.00       1.19   -0.57   -0.28
#  33    2.97   -0.69    0.21   -0.22   -0.16    0.00    0.00       2.11   -0.40   -0.28
#  34    2.89   -0.79    0.39   -0.78   -0.16    0.00    0.00       1.54   -1.36   -0.28
#  35    2.97   -0.22    0.02   -0.45   -0.08    0.00    0.00       2.24   -1.63   -0.28

@<TRIPOS>MOLECULE
       AVX17260_0       100
   35    38     0     0     0



@<TRIPOS>ATOM
      1 O1         11.4926   -23.9657   -21.3479 O.co2      1          -0.6800
      2 C1         10.7841   -23.3090   -22.0984 C.2        1           0.5351
      3 O2         11.0418   -22.1316   -22.3085 O.co2      1          -0.6766
      4 C2          9.6255   -23.9370   -22.7536 C.ar       1          -0.0833
      5 C3          8.3689   -23.9130   -22.1368 C.ar       1           0.0424
      6 O3          7.9358   -23.3912   -20.9590 O.3        1          -0.2993
      7 C4          6.6982   -24.0500   -20.6503 C.3        1           0.2107
      8 O4          6.1921   -24.3454   -21.9608 O.3        1          -0.3171
      9 C5          7.2791   -24.5109   -22.7663 C.ar       1           0.0206
     10 C6          7.4420   -25.1241   -23.9955 C.ar       1          -0.1153
     11 C7          8.6857   -25.1482   -24.6065 C.ar       1          -0.0884
     12 C8          9.7717   -24.5572   -24.0000 C.ar       1          -0.0678
     13 C9         11.1187   -24.5833   -24.6755 C.3        1          -0.0439
     14 C10        11.5535   -26.0345   -24.8902 C.3        1          -0.0857
     15 C11        12.6633   -26.1092   -25.9171 C.2        1           0.5320
     16 O5         12.5963   -25.7613   -27.0771 O.2        1          -0.4862
     17 N1         13.7369   -26.6326   -25.3016 N.am       1          -0.6648
     18 C12        13.4861   -26.9267   -23.9608 C.ar       1           0.1403
     19 C13        14.3101   -27.4720   -22.9780 C.ar       1          -0.1460
     20 C14        13.8263   -27.6726   -21.7019 C.ar       1          -0.0919
     21 C15        12.5226   -27.3349   -21.3871 C.ar       1          -0.1418
     22 C16        11.6985   -26.7925   -22.3576 C.ar       1          -0.0572
     23 C17        12.1787   -26.5916   -23.6322 C.ar       1          -0.1210
     24 H1          6.8738   -24.9649   -20.0843 H          1           0.1238
     25 H2          6.0243   -23.3826   -20.1129 H          1           0.0765
     26 H3          6.5957   -25.5870   -24.4814 H          1           0.1252
     27 H4          8.8030   -25.6300   -25.5658 H          1           0.1252
     28 H5         11.0519   -24.0776   -25.6387 H          1           0.0714
     29 H6         11.8498   -24.0741   -24.0477 H          1           0.0994
     30 H7         10.7043   -26.6450   -25.1974 H          1           0.1450
     31 H8         14.5886   -26.7883   -25.7390 H          1           0.4075
     32 H9         15.3292   -27.7384   -23.2161 H          1           0.1215
     33 H10        14.4691   -28.0963   -20.9444 H          1           0.1262
     34 H11        12.1486   -27.4944   -20.3865 H          1           0.1277
     35 H12        10.6798   -26.5278   -22.1156 H          1           0.1356
@<TRIPOS>BOND
     1    1    2 1
     2    2    3 2
     3    2    4 1
     4    4   12 ar
     5    4    5 ar
     6    5    9 ar
     7    5    6 1
     8    6    7 1
     9    7    8 1
    10    7   24 1
    11    7   25 1
    12    8    9 1
    13    9   10 ar
    14   10   11 ar
    15   10   26 1
    16   11   12 ar
    17   11   27 1
    18   12   13 1
    19   13   14 1
    20   13   28 1
    21   13   29 1
    22   14   23 1
    23   14   15 1
    24   14   30 1
    25   15   16 2
    26   15   17 am
    27   17   18 1
    28   17   31 1
    29   18   23 ar
    30   18   19 ar
    31   19   20 ar
    32   19   32 1
    33   20   21 ar
    34   20   33 1
    35   21   22 ar
    36   21   34 1
    37   22   23 ar
    38   22   35 1
