AVX15988_0, 3
##########                 Name:           AVX15988_0
##########          Protonation:                   97
##########               SMILES:   [H]/N=c\1/[nH]c2c(c(ccc2s1)Cl)C
##########            Long Name:   5-chloro-4-methyl-3H-1,3-benzothiazol-2-imine
##########          FlexRecCode: 1
##########               Number:                  615
##########   Ligand Source File: /raid1/people/rgc/Examples/sampl4/screening/ligands/build_1//sampl4-hivint-00000
##########           GlobalRank: 130
##########                 Rank:                    1
##########               Setnum:                    1
##########             Matchnum:                16342
##########                Cloud:                    1
##########        Electrostatic:            -2.285426
##########        Van der Waals:           -19.617023
##########  Ligand Polar Desolv:             1.537740
########## Ligand Apolar Desolv:            -1.725939
##########      Internal Energy:             0.000000
##########      Receptor Energy: 0.0
########## Receptor Desolvation:             0.000000
########## Receptor Hydrophobic:             0.000000
##########         Total Energy: -22.09
##########        Ligand Charge:             0.000000
##########            Arbitrary:    +999.9990
##########     heavy atom count:   12
##########           pose count:    1
##########        Ligand Energy:             0.000000
# num electro vdwattr vdwrepu polsolv apolsol rdesolv rhydroe totalscore fullpol fullapo
#   1   -1.50   -0.80    0.11   -0.08   -0.06    0.00    0.00      -2.33   -0.23   -0.19
#   2   -1.78   -1.30    0.18   -0.01   -0.15    0.00    0.00      -3.05   -0.02   -0.41
#   3    0.00   -0.93    0.08    0.00   -0.09    0.00    0.00      -0.95   -0.01   -0.30
#   4   -0.61   -0.92    0.04   -0.01   -0.18    0.00    0.00      -1.68   -0.04   -0.93
#   5   -2.49   -1.32    0.17   -0.09   -0.19    0.00    0.00      -3.92   -0.23   -0.46
#   6   -0.85   -2.70    1.00   -0.03   -0.24    0.00    0.00      -2.82   -0.06   -0.47
#   7   -3.42   -3.18    1.82    0.06   -0.16    0.00    0.00      -4.89    0.12   -0.31
#   8    3.78   -2.17    0.65   -0.06   -0.34    0.00    0.00       1.86   -0.13   -0.72
#   9  -11.17   -2.72    0.81    0.37    0.58    0.00    0.00     -12.12    0.66    1.03
#  10    8.20   -2.95    0.69   -0.67   -1.59    0.00    0.00       3.68   -1.00   -2.36
#  11   -9.44   -4.35    1.92    1.48    1.00    0.00    0.00      -9.38    2.11    1.43
#  12   -1.42   -6.64    4.30    0.07   -0.56    0.00    0.00      -4.24    0.11   -0.83
#  13    0.83   -0.12    0.00    0.03   -0.03    0.00    0.00       0.70    0.22   -0.28
#  14    1.29   -0.25    0.05    0.04   -0.06    0.00    0.00       1.08    0.16   -0.23
#  15    0.31   -0.48    0.16    0.07   -0.08    0.00    0.00      -0.02    0.22   -0.24
#  16    2.91   -0.20    0.02    0.21   -0.07    0.00    0.00       2.87    0.89   -0.28
#  17    3.36   -0.73    0.27    0.45   -0.16    0.00    0.00       3.20    0.80   -0.28
#  18    3.89   -0.08    0.01    0.10    0.24    0.00    0.00       4.16    0.21    0.52
#  19    5.82   -0.06    0.00   -0.40    0.42    0.00    0.00       5.77   -0.57    0.60

@<TRIPOS>MOLECULE
       AVX15988_0        97
   19    20     0     0     0



@<TRIPOS>ATOM
      1 C1         12.7627   -26.5080   -25.5159 C.3        1          -0.1232
      2 C2         12.4382   -26.7143   -24.0587 C.ar       1          -0.0886
      3 C3         11.1737   -26.4273   -23.5979 C.ar       1          -0.0001
      4 Cl1         9.9769   -25.8334   -24.7064 Cl         1          -0.0495
      5 C4         10.8383   -26.6041   -22.2661 C.ar       1          -0.1139
      6 C5         11.7977   -27.0786   -21.3874 C.ar       1          -0.0342
      7 C6         13.0599   -27.3649   -21.8483 C.ar       1          -0.1286
      8 C7         13.4289   -27.2022   -23.1909 C.ar       1           0.1622
      9 N1         14.7357   -27.5379   -23.5085 N.pl3      1          -0.6399
     10 C8         15.5809   -28.0035   -22.5313 C.2        1           0.4393
     11 N2         16.8323   -28.3664   -22.6353 N.2        1          -0.6873
     12 S1         14.5413   -27.9745   -21.0803 S.3        1          -0.0576
     13 H1         11.8823   -26.1277   -26.0339 H          1           0.0814
     14 H2         13.5773   -25.7897   -25.6086 H          1           0.0844
     15 H3         13.0632   -27.4574   -25.9592 H          1           0.0669
     16 H4          9.8423   -26.3746   -21.9173 H          1           0.1508
     17 H5         11.5550   -27.2226   -20.3449 H          1           0.1482
     18 H6         15.0530   -27.4444   -24.4204 H          1           0.4170
     19 H7         17.3132   -28.6790   -21.8531 H          1           0.3727
@<TRIPOS>BOND
     1    1    2 1
     2    1   13 1
     3    1   14 1
     4    1   15 1
     5    2    8 ar
     6    2    3 ar
     7    3    4 1
     8    3    5 ar
     9    5    6 ar
    10    5   16 1
    11    6    7 ar
    12    6   17 1
    13    7   12 1
    14    7    8 ar
    15    8    9 1
    16    9   10 1
    17    9   18 1
    18   10   11 2
    19   10   12 1
    20   11   19 1
