AVX38672_0, 3
##########                 Name:           AVX38672_0
##########          Protonation:                  100
##########               SMILES:   CC(C)(C)NC(=O)[C@H](c1ccccc1)NC(=O)N(C)Cc2ccc3c(c2C(=O)[O-])OCO3
##########            Long Name:   1-phenyl-ethyl]carbamoyl-methyl-amino]methyl]-1,3-benzodioxole-4-carboxylate
##########          FlexRecCode: 1
##########               Number:                   51
##########   Ligand Source File: /raid1/people/rgc/Examples/sampl4/screening/ligands/build_1//sampl4-hivint-00000
##########           GlobalRank: 105
##########                 Rank:                    1
##########               Setnum:                    7
##########             Matchnum:                25161
##########                Cloud:                    1
##########        Electrostatic:           -33.881470
##########        Van der Waals:           -12.213605
##########  Ligand Polar Desolv:            15.739648
########## Ligand Apolar Desolv:            -1.990115
##########      Internal Energy:             0.000000
##########      Receptor Energy: 0.0
########## Receptor Desolvation:             0.000000
########## Receptor Hydrophobic:             0.000000
##########         Total Energy: -32.35
##########        Ligand Charge:            -1.000000
##########            Arbitrary:    +999.9990
##########     heavy atom count:   32
##########           pose count:    1
##########        Ligand Energy:             0.000000
# num electro vdwattr vdwrepu polsolv apolsol rdesolv rhydroe totalscore fullpol fullapo
#   1    0.45   -0.43    0.03   -0.15   -0.11    0.00    0.00      -0.22   -0.66   -0.51
#   2   -4.53   -0.29    0.01    1.16    0.13    0.00    0.00      -3.52   10.49    1.19
#   3    2.53   -0.38    0.07   -0.94   -0.05    0.00    0.00       1.23   -5.47   -0.31
#   4   -1.16   -0.81    0.13    0.35   -0.11    0.00    0.00      -1.60    1.31   -0.41
#   5   -1.78   -1.30    0.23    0.50   -0.15    0.00    0.00      -2.49    1.40   -0.42
#   6   -1.69   -2.07    0.53    0.24   -0.20    0.00    0.00      -3.19    0.56   -0.47
#   7   -0.07   -2.13    0.73   -0.12   -0.15    0.00    0.00      -1.75   -0.26   -0.33
#   8   -8.11   -2.70    1.13    2.65    0.29    0.00    0.00      -6.75    4.80    0.52
#   9    5.48   -2.72    1.69   -1.67    0.01    0.00    0.00       2.79   -2.97    0.02
#  10  -10.70   -4.10    5.82    4.53    0.17    0.00    0.00      -4.27    9.21    0.34
#  11    2.71   -2.12    1.54   -0.32   -0.13    0.00    0.00       1.67   -0.81   -0.32
#  12   -3.89   -1.10    0.26    1.87   -0.12    0.00    0.00      -2.98    6.42   -0.41
#  13   16.15   -1.05    0.29   -5.67   -0.05    0.00    0.00       9.68  -18.37   -0.17
#  14  -27.49   -2.72    3.62   10.49   -0.12    0.00    0.00     -16.23   28.00   -0.33
#  15  -13.32   -0.43    0.01    6.84   -0.12    0.00    0.00      -7.02   31.30   -0.56
#  16    2.95   -0.17    0.00   -0.79   -0.12    0.00    0.00       1.88  -12.09   -1.92
#  17   -1.52   -0.11    0.00    0.92    0.02    0.00    0.00      -0.68   14.70    0.37
#  18   -2.13   -0.17    0.00    0.60    0.12    0.00    0.00      -1.58    8.50    1.69
#  19    0.21   -0.06    0.00   -0.08   -0.01    0.00    0.00       0.06   -2.01   -0.25
#  20    0.61   -0.06    0.00   -0.15   -0.02    0.00    0.00       0.39   -5.08   -0.55
#  21   -0.47   -0.03    0.00    0.14    0.01    0.00    0.00      -0.36    6.86    0.29
#  22   -1.84   -0.11    0.00    0.21    0.09    0.00    0.00      -1.64    4.31    1.96
#  23    0.24   -0.11    0.00   -0.06   -0.01    0.00    0.00       0.07   -0.84   -0.12
#  24   -0.17   -0.06    0.00    0.04   -0.01    0.00    0.00      -0.19    1.10   -0.16
#  25   -0.97   -0.28    0.01    0.04   -0.03    0.00    0.00      -1.22    0.25   -0.17
#  26   -0.27   -0.17    0.01    0.10   -0.02    0.00    0.00      -0.34    0.90   -0.16
#  27   -0.06   -0.18    0.01    0.08   -0.03    0.00    0.00      -0.16    1.11   -0.33
#  28   -0.05   -0.16    0.01    0.08   -0.03    0.00    0.00      -0.16    1.07   -0.44
#  29   -0.06   -0.44    0.09    0.11   -0.06    0.00    0.00      -0.35    0.87   -0.47
#  30   -0.06   -0.72    0.22    0.12   -0.08    0.00    0.00      -0.52    0.72   -0.47
#  31   -0.07   -0.80    0.49    0.13   -0.08    0.00    0.00      -0.33    0.80   -0.47
#  32   -0.07   -0.43    0.10    0.13   -0.06    0.00    0.00      -0.33    1.00   -0.45
#  33    0.22   -0.13    0.01   -0.12   -0.04    0.00    0.00      -0.07   -0.82   -0.28
#  34    0.27   -0.20    0.03   -0.18   -0.04    0.00    0.00      -0.12   -0.96   -0.22
#  35    0.62   -0.14    0.01   -0.14   -0.04    0.00    0.00       0.31   -0.90   -0.28
#  36    0.95   -0.09    0.01   -0.09   -0.02    0.00    0.00       0.75   -0.89   -0.23
#  37    1.44   -0.21    0.12   -0.27   -0.04    0.00    0.00       1.03   -1.82   -0.24
#  38    0.74   -0.33    0.11   -0.69   -0.06    0.00    0.00      -0.22   -2.62   -0.21
#  39    1.05   -0.74    0.36   -1.02   -0.12    0.00    0.00      -0.48   -2.31   -0.28
#  40    2.32   -0.74    0.56   -1.27   -0.15    0.00    0.00       0.72   -2.37   -0.28
#  41    1.98   -1.70    3.12   -1.05   -0.18    0.00    0.00       2.16   -1.65   -0.28
#  42    1.25    0.00    0.00   -0.26    0.02    0.00    0.00       1.01   -4.31    0.37
#  43    0.08   -0.01    0.00   -0.02    0.00    0.00    0.00       0.05   -1.21   -0.26
#  44    1.94    0.00    0.00   -0.05    0.02    0.00    0.00       1.91   -1.76    0.55
#  45    0.06   -0.02    0.00   -0.01   -0.01    0.00    0.00       0.02   -0.37   -0.28
#  46    0.05   -0.01    0.00   -0.01    0.00    0.00    0.00       0.04   -0.48   -0.28
#  47    0.08   -0.01    0.00    0.00    0.00    0.00    0.00       0.05   -0.24   -0.22
#  48    0.37   -0.13    0.01   -0.01   -0.04    0.00    0.00       0.20   -0.11   -0.28
#  49    0.36   -0.07    0.00   -0.01   -0.02    0.00    0.00       0.28   -0.11   -0.28
#  50    0.78   -0.12    0.01   -0.02   -0.04    0.00    0.00       0.62   -0.13   -0.28
#  51    0.12   -0.07    0.00   -0.02   -0.02    0.00    0.00       0.02   -0.24   -0.22
#  52    0.14   -0.10    0.01   -0.04   -0.03    0.00    0.00      -0.01   -0.40   -0.28
#  53    0.07   -0.02    0.00   -0.01   -0.01    0.00    0.00       0.04   -0.33   -0.28
#  54    0.06   -0.01    0.00   -0.01    0.00    0.00    0.00       0.03   -0.93   -0.27
#  55    0.05   -0.12    0.04   -0.06   -0.02    0.00    0.00      -0.12   -0.71   -0.28
#  56    0.07   -0.23    0.13   -0.09   -0.05    0.00    0.00      -0.18   -0.58   -0.28
#  57    0.08   -0.20    0.11   -0.10   -0.04    0.00    0.00      -0.16   -0.68   -0.28
#  58    0.11   -0.08    0.01   -0.08   -0.02    0.00    0.00      -0.07   -0.97   -0.28

@<TRIPOS>MOLECULE
       AVX38672_0       100
   58    60     0     0     0



@<TRIPOS>ATOM
      1 C1         10.1956   -26.3449   -26.5741 C.3        1           0.0769
      2 N1         10.5224   -24.9183   -26.6391 N.am       1          -0.6275
      3 C2         11.7999   -24.4347   -26.1094 C.3        1           0.1940
      4 C3         12.2395   -25.3200   -24.9719 C.ar       1          -0.0518
      5 C4         13.0290   -26.4204   -25.2211 C.ar       1          -0.1211
      6 C5         13.4381   -27.2403   -24.1813 C.ar       1          -0.1017
      7 C6         13.0580   -26.9617   -22.8808 C.ar       1          -0.0028
      8 O1         13.3129   -27.5867   -21.6967 O.3        1          -0.3193
      9 C7         12.3140   -27.1299   -20.7722 C.3        1           0.2047
     10 O2         12.0378   -25.8126   -21.2712 O.3        1          -0.2769
     11 C8         12.2598   -25.8518   -22.6115 C.ar       1           0.0772
     12 C9         11.8502   -25.0205   -23.6610 C.ar       1          -0.1202
     13 C10        11.0115   -23.8423   -23.3883 C.2        1           0.5221
     14 O3         11.5334   -22.7614   -23.1515 O.co2      1          -0.6799
     15 O4          9.7923   -23.9436   -23.3984 O.co2      1          -0.6711
     16 C11         9.6480   -24.0508   -27.1862 C.2        1           0.7080
     17 O5         10.0531   -23.0455   -27.7373 O.2        1          -0.5763
     18 N2          8.3246   -24.2976   -27.1223 N.am       1          -0.7306
     19 C12         7.3740   -23.3547   -27.7170 C.3        1           0.1879
     20 C13         7.5252   -22.0071   -27.0595 C.2        1           0.5245
     21 O6          7.2864   -20.9965   -27.6860 O.2        1          -0.5262
     22 N3          7.9259   -21.9249   -25.7752 N.am       1          -0.7163
     23 C14         8.0727   -20.6150   -25.1361 C.3        1           0.1695
     24 C15         6.7273   -19.8865   -25.1509 C.3        1          -0.1653
     25 C16         8.5354   -20.8023   -23.6898 C.3        1          -0.1560
     26 C17         9.1089   -19.7881   -25.9000 C.3        1          -0.1633
     27 C18         5.9693   -23.8597   -27.5100 C.ar       1          -0.0942
     28 C19         4.9848   -23.5622   -28.4338 C.ar       1          -0.0950
     29 C20         3.6963   -24.0255   -28.2440 C.ar       1          -0.1185
     30 C21         3.3925   -24.7866   -27.1307 C.ar       1          -0.1158
     31 C22         4.3771   -25.0848   -26.2076 C.ar       1          -0.1174
     32 C23         5.6666   -24.6252   -26.3996 C.ar       1          -0.1025
     33 H1          9.2121   -26.5125   -27.0134 H          1           0.0572
     34 H2         10.9424   -26.9144   -27.1271 H          1           0.0602
     35 H3         10.1886   -26.6689   -25.5334 H          1           0.0774
     36 H4         12.5518   -24.4564   -26.8983 H          1           0.1137
     37 H5         11.6805   -23.4128   -25.7495 H          1           0.1065
     38 H6         13.3309   -26.6463   -26.2332 H          1           0.1243
     39 H7         14.0565   -28.1014   -24.3875 H          1           0.1223
     40 H8         11.4246   -27.7584   -20.8166 H          1           0.1233
     41 H9         12.7110   -27.0878   -19.7580 H          1           0.0744
     42 H10         8.0013   -25.0996   -26.6825 H          1           0.4043
     43 H11         7.5734   -23.2625   -28.7846 H          1           0.1213
     44 H12         8.1169   -22.7333   -25.2742 H          1           0.4014
     45 H13         6.8367   -18.9119   -24.6753 H          1           0.0550
     46 H14         6.3978   -19.7531   -26.1812 H          1           0.0626
     47 H15         5.9892   -20.4756   -24.6067 H          1           0.0793
     48 H16         8.6447   -19.8276   -23.2142 H          1           0.0625
     49 H17         7.7973   -21.3914   -23.1455 H          1           0.0736
     50 H18         9.4939   -21.3212   -23.6792 H          1           0.0629
     51 H19         9.2181   -18.8135   -25.4245 H          1           0.0785
     52 H20        10.0673   -20.3071   -25.8894 H          1           0.0621
     53 H21         8.7793   -19.6547   -26.9304 H          1           0.0542
     54 H22         5.2222   -22.9675   -29.3035 H          1           0.1183
     55 H23         2.9271   -23.7924   -28.9652 H          1           0.1215
     56 H24         2.3857   -25.1480   -26.9821 H          1           0.1206
     57 H25         4.1397   -25.6793   -25.3377 H          1           0.1231
     58 H26         6.4368   -24.8613   -25.6802 H          1           0.1241
@<TRIPOS>BOND
     1    1    2 1
     2    1   33 1
     3    1   34 1
     4    1   35 1
     5    2    3 1
     6    2   16 am
     7    3    4 1
     8    3   36 1
     9    3   37 1
    10    4   12 ar
    11    4    5 ar
    12    5    6 ar
    13    5   38 1
    14    6    7 ar
    15    6   39 1
    16    7   11 ar
    17    7    8 1
    18    8    9 1
    19    9   10 1
    20    9   40 1
    21    9   41 1
    22   10   11 1
    23   11   12 ar
    24   12   13 1
    25   13   14 1
    26   13   15 2
    27   16   17 2
    28   16   18 am
    29   18   19 1
    30   18   42 1
    31   19   20 1
    32   19   27 1
    33   19   43 1
    34   20   21 2
    35   20   22 am
    36   22   23 1
    37   22   44 1
    38   23   24 1
    39   23   25 1
    40   23   26 1
    41   24   45 1
    42   24   46 1
    43   24   47 1
    44   25   48 1
    45   25   49 1
    46   25   50 1
    47   26   51 1
    48   26   52 1
    49   26   53 1
    50   27   32 ar
    51   27   28 ar
    52   28   29 ar
    53   28   54 1
    54   29   30 ar
    55   29   55 1
    56   30   31 ar
    57   30   56 1
    58   31   32 ar
    59   31   57 1
    60   32   58 1
