AVX38674_0, 3
##########                 Name:           AVX38674_0
##########          Protonation:                  100
##########               SMILES:   CN(Cc1ccc2c(c1C(=O)[O-])OCO2)C(=O)N[C@@H](c3ccccc3)C(=O)NCc4ccccc4
##########            Long Name:   1-phenyl-ethyl]carbamoyl-methyl-amino]methyl]-1,3-benzodioxole-4-carboxylate
##########          FlexRecCode: 1
##########               Number:                  770
##########   Ligand Source File: /raid1/people/rgc/Examples/sampl4/screening/ligands/build_1//sampl4-hivint-00000
##########           GlobalRank: 15
##########                 Rank:                    1
##########               Setnum:                  206
##########             Matchnum:                23741
##########                Cloud:                    1
##########        Electrostatic:           -45.893681
##########        Van der Waals:           -17.793390
##########  Ligand Polar Desolv:            22.833340
########## Ligand Apolar Desolv:            -2.355208
##########      Internal Energy:             0.000000
##########      Receptor Energy: 0.0
########## Receptor Desolvation:             0.000000
########## Receptor Hydrophobic:             0.000000
##########         Total Energy: -43.21
##########        Ligand Charge:            -1.000000
##########            Arbitrary:    +999.9990
##########     heavy atom count:   35
##########           pose count:    1
##########        Ligand Energy:             0.000000
# num electro vdwattr vdwrepu polsolv apolsol rdesolv rhydroe totalscore fullpol fullapo
#   1    0.12   -0.18    0.00   -0.07   -0.06    0.00    0.00      -0.18   -0.63   -0.51
#   2   -3.00   -0.28    0.01    1.26    0.14    0.00    0.00      -1.87   10.35    1.19
#   3    2.74   -0.43    0.07   -1.17   -0.07    0.00    0.00       1.13   -5.43   -0.31
#   4   -0.78   -0.43    0.02    0.23   -0.07    0.00    0.00      -1.03    1.30   -0.41
#   5   -0.99   -0.26    0.00    0.13   -0.04    0.00    0.00      -1.16    1.38   -0.42
#   6   -0.75   -0.39    0.02    0.08   -0.07    0.00    0.00      -1.11    0.55   -0.47
#   7   -0.03   -0.61    0.04   -0.06   -0.08    0.00    0.00      -0.73   -0.25   -0.33
#   8   -2.77   -0.92    0.22    1.57    0.17    0.00    0.00      -1.73    4.79    0.52
#   9    2.24   -1.02    0.22   -1.19    0.01    0.00    0.00       0.26   -2.97    0.02
#  10   -5.35   -1.04    0.10    3.71    0.14    0.00    0.00      -2.45    9.21    0.34
#  11    1.43   -0.76    0.06   -0.21   -0.09    0.00    0.00       0.44   -0.79   -0.32
#  12   -2.80   -0.72    0.05    1.80   -0.12    0.00    0.00      -1.78    6.40   -0.41
#  13   20.35   -1.64    0.44   -7.28   -0.07    0.00    0.00      11.82  -18.33   -0.17
#  14  -33.26   -2.49    2.20   10.55   -0.12    0.00    0.00     -23.13   27.93   -0.33
#  15  -30.46   -2.76    0.95   15.31   -0.27    0.00    0.00     -17.23   31.27   -0.56
#  16    1.18   -0.15    0.00   -0.87   -0.14    0.00    0.00       0.02  -11.96   -1.92
#  17   -0.68   -0.06    0.00    0.48    0.01    0.00    0.00      -0.25   14.56    0.37
#  18   -1.80   -0.19    0.01    0.74    0.15    0.00    0.00      -1.10    8.39    1.69
#  19    0.30   -0.06    0.00   -0.09   -0.01    0.00    0.00       0.14   -2.05   -0.25
#  20    1.03   -0.10    0.00   -0.20   -0.02    0.00    0.00       0.70   -5.18   -0.60
#  21   -0.55   -0.07    0.00    0.22    0.01    0.00    0.00      -0.38    7.21    0.38
#  22   -2.65   -0.19    0.00    0.37    0.18    0.00    0.00      -2.28    4.67    2.29
#  23    0.52   -0.21    0.01   -0.12   -0.05    0.00    0.00       0.14   -1.05   -0.44
#  24   -0.64   -0.67    0.04    0.15   -0.08    0.00    0.00      -1.20    0.64   -0.37
#  25   -0.74   -1.11    0.25    0.18   -0.13    0.00    0.00      -1.56    0.62   -0.45
#  26   -1.26   -2.04    0.99    0.22   -0.18    0.00    0.00      -2.28    0.56   -0.47
#  27   -1.19   -2.86    1.96    0.16   -0.19    0.00    0.00      -2.12    0.41   -0.47
#  28   -0.86   -2.61    1.55    0.17   -0.17    0.00    0.00      -1.91    0.47   -0.47
#  29   -0.58   -1.13    0.16    0.14   -0.13    0.00    0.00      -1.53    0.50   -0.45
#  30   -0.14   -0.10    0.00    0.06   -0.02    0.00    0.00      -0.20    1.14   -0.33
#  31   -0.10   -0.04    0.00    0.02   -0.01    0.00    0.00      -0.13    1.04   -0.44
#  32   -0.11   -0.04    0.00    0.01   -0.01    0.00    0.00      -0.15    0.83   -0.47
#  33   -0.14   -0.10    0.00    0.03   -0.02    0.00    0.00      -0.23    0.71   -0.47
#  34   -0.20   -0.35    0.04    0.10   -0.06    0.00    0.00      -0.46    0.84   -0.47
#  35   -0.20   -0.36    0.06    0.12   -0.05    0.00    0.00      -0.43    1.04   -0.45
#  36    0.07   -0.02    0.00   -0.02   -0.01    0.00    0.00       0.02   -0.81   -0.28
#  37    0.10   -0.05    0.00   -0.04   -0.01    0.00    0.00       0.00   -0.93   -0.22
#  38    0.24   -0.10    0.01   -0.08   -0.03    0.00    0.00       0.03   -0.88   -0.28
#  39    1.53   -0.25    0.16   -0.15   -0.04    0.00    0.00       1.25   -0.88   -0.23
#  40    2.17   -0.23    0.04   -0.42   -0.05    0.00    0.00       1.51   -1.82   -0.24
#  41    0.59   -0.03    0.00   -0.08   -0.01    0.00    0.00       0.47   -2.59   -0.21
#  42    0.51   -0.08    0.01   -0.20   -0.02    0.00    0.00       0.21   -2.28   -0.28
#  43    1.15   -0.53    0.29   -0.89   -0.11    0.00    0.00      -0.09   -2.36   -0.28
#  44    0.63   -0.41    0.13   -0.53   -0.09    0.00    0.00      -0.27   -1.64   -0.28
#  45    1.32    0.00    0.00   -0.31    0.03    0.00    0.00       1.03   -4.21    0.37
#  46    0.13   -0.01    0.00   -0.02    0.00    0.00    0.00       0.10   -1.25   -0.26
#  47    1.97    0.00    0.00   -0.16    0.04    0.00    0.00       1.85   -2.25    0.55
#  48    0.15   -0.07    0.00   -0.04   -0.02    0.00    0.00       0.03   -0.50   -0.28
#  49    0.15   -0.05    0.00   -0.02   -0.01    0.00    0.00       0.07   -0.49   -0.28
#  50    0.67   -0.22    0.06   -0.11   -0.05    0.00    0.00       0.34   -0.59   -0.28
#  51    1.35   -0.76    1.27   -0.13   -0.11    0.00    0.00       1.63   -0.35   -0.28
#  52    1.54   -1.07    1.52   -0.08   -0.11    0.00    0.00       1.80   -0.20   -0.28
#  53    0.59   -0.78    0.66   -0.09   -0.10    0.00    0.00       0.27   -0.23   -0.28
#  54    0.53   -0.19    0.02   -0.09   -0.06    0.00    0.00       0.20   -0.47   -0.28
#  55    0.10    0.00    0.00   -0.01    0.00    0.00    0.00       0.09   -0.92   -0.27
#  56    0.09    0.00    0.00    0.00    0.00    0.00    0.00       0.08   -0.68   -0.28
#  57    0.13   -0.01    0.00   -0.01    0.00    0.00    0.00       0.10   -0.58   -0.28
#  58    0.24   -0.15    0.03   -0.10   -0.04    0.00    0.00      -0.02   -0.73   -0.28
#  59    0.33   -0.19    0.10   -0.15   -0.04    0.00    0.00       0.05   -1.02   -0.28

@<TRIPOS>MOLECULE
       AVX38674_0       100
   59    62     0     0     0



@<TRIPOS>ATOM
      1 C1          7.6610   -20.3114   -23.7641 C.3        1           0.0765
      2 N1          8.6335   -21.1217   -24.5017 N.am       1          -0.6274
      3 C2          9.6492   -21.8881   -23.7755 C.3        1           0.1939
      4 C3          9.1156   -23.2633   -23.4669 C.ar       1          -0.0518
      5 C4          7.8476   -23.6169   -23.8715 C.ar       1          -0.1211
      6 C5          7.3496   -24.8792   -23.5923 C.ar       1          -0.1017
      7 C6          8.1204   -25.8003   -22.9033 C.ar       1          -0.0028
      8 O1          7.8636   -27.0832   -22.5128 O.3        1          -0.3193
      9 C7          9.1499   -27.6576   -22.2144 C.3        1           0.2047
     10 O2          9.9520   -26.5227   -21.8379 O.3        1          -0.2769
     11 C8          9.4047   -25.4584   -22.4872 C.ar       1           0.0773
     12 C9          9.9105   -24.1834   -22.7743 C.ar       1          -0.1202
     13 C10        11.2684   -23.8122   -22.3448 C.2        1           0.5221
     14 O3         12.2209   -24.0146   -23.0853 O.co2      1          -0.6799
     15 O4         11.4446   -23.3014   -21.2472 O.co2      1          -0.6711
     16 C11         8.5937   -21.1623   -25.8482 C.2        1           0.7082
     17 O5          7.7508   -20.5263   -26.4510 O.2        1          -0.5758
     18 N2          9.4884   -21.9077   -26.5266 N.am       1          -0.7312
     19 C12         9.4453   -21.9518   -27.9904 C.3        1           0.1901
     20 C13         9.9538   -23.2876   -28.4679 C.2        1           0.5213
     21 O6          9.5335   -23.7622   -29.5019 O.2        1          -0.5294
     22 N3         10.8756   -23.9550   -27.7459 N.am       1          -0.7189
     23 C14        11.3699   -25.2537   -28.2101 C.3        1           0.1621
     24 C15        11.7533   -26.0990   -27.0228 C.ar       1          -0.1100
     25 C16        13.0399   -26.0425   -26.5206 C.ar       1          -0.0996
     26 C17        13.3915   -26.8177   -25.4316 C.ar       1          -0.1218
     27 C18        12.4562   -27.6491   -24.8443 C.ar       1          -0.1119
     28 C19        11.1693   -27.7050   -25.3458 C.ar       1          -0.1221
     29 C20        10.8165   -26.9264   -26.4322 C.ar       1          -0.0985
     30 C21        10.3124   -20.8543   -28.5517 C.ar       1          -0.0955
     31 C22         9.9945   -20.2751   -29.7658 C.ar       1          -0.0952
     32 C23        10.7897   -19.2684   -30.2806 C.ar       1          -0.1184
     33 C24        11.9026   -18.8407   -29.5810 C.ar       1          -0.1151
     34 C25        12.2199   -19.4192   -28.3664 C.ar       1          -0.1170
     35 C26        11.4222   -20.4230   -27.8495 C.ar       1          -0.1014
     36 H1          6.9910   -19.8178   -24.4681 H          1           0.0574
     37 H2          7.0819   -20.9535   -23.1005 H          1           0.0603
     38 H3          8.1868   -19.5599   -23.1751 H          1           0.0776
     39 H4         10.5459   -21.9755   -24.3890 H          1           0.1139
     40 H5          9.8941   -21.3760   -22.8448 H          1           0.1067
     41 H6          7.2378   -22.9060   -24.4090 H          1           0.1243
     42 H7          6.3537   -25.1465   -23.9137 H          1           0.1224
     43 H8          9.0717   -28.3628   -21.3869 H          1           0.1233
     44 H9          9.5656   -28.1450   -23.0962 H          1           0.0744
     45 H10        10.1609   -22.4152   -26.0457 H          1           0.4044
     46 H11         8.4184   -21.8120   -28.3280 H          1           0.1230
     47 H12        11.2117   -23.5756   -26.9189 H          1           0.4046
     48 H13        10.5882   -25.7581   -28.7780 H          1           0.0781
     49 H14        12.2423   -25.1040   -28.8463 H          1           0.0789
     50 H15        13.7706   -25.3928   -26.9795 H          1           0.1252
     51 H16        14.3970   -26.7742   -25.0398 H          1           0.1243
     52 H17        12.7311   -28.2554   -23.9938 H          1           0.1227
     53 H18        10.4386   -28.3548   -24.8871 H          1           0.1237
     54 H19         9.8101   -26.9673   -26.8218 H          1           0.1241
     55 H20         9.1250   -20.6094   -30.3124 H          1           0.1187
     56 H21        10.5418   -18.8164   -31.2297 H          1           0.1218
     57 H22        12.5243   -18.0547   -29.9835 H          1           0.1208
     58 H23        13.0895   -19.0852   -27.8199 H          1           0.1232
     59 H24        11.6681   -20.8725   -26.8988 H          1           0.1241
@<TRIPOS>BOND
     1    1    2 1
     2    1   36 1
     3    1   37 1
     4    1   38 1
     5    2    3 1
     6    2   16 am
     7    3    4 1
     8    3   39 1
     9    3   40 1
    10    4   12 ar
    11    4    5 ar
    12    5    6 ar
    13    5   41 1
    14    6    7 ar
    15    6   42 1
    16    7   11 ar
    17    7    8 1
    18    8    9 1
    19    9   10 1
    20    9   43 1
    21    9   44 1
    22   10   11 1
    23   11   12 ar
    24   12   13 1
    25   13   14 1
    26   13   15 2
    27   16   17 2
    28   16   18 am
    29   18   19 1
    30   18   45 1
    31   19   20 1
    32   19   30 1
    33   19   46 1
    34   20   21 2
    35   20   22 am
    36   22   23 1
    37   22   47 1
    38   23   24 1
    39   23   48 1
    40   23   49 1
    41   24   29 ar
    42   24   25 ar
    43   25   26 ar
    44   25   50 1
    45   26   27 ar
    46   26   51 1
    47   27   28 ar
    48   27   52 1
    49   28   29 ar
    50   28   53 1
    51   29   54 1
    52   30   35 ar
    53   30   31 ar
    54   31   32 ar
    55   31   55 1
    56   32   33 ar
    57   32   56 1
    58   33   34 ar
    59   33   57 1
    60   34   35 ar
    61   34   58 1
    62   35   59 1
