AVX38753_3, 3
##########                 Name:           AVX38753_0
##########          Protonation:                   61
##########               SMILES:   C[NH+](Cc1ccccc1C(=O)NCc2ccccc2)Cc3ccc4c(c3C(=O)[O-])OC[C@@H](O4)CCC(=O)[O-]
##########            Long Name:   ]methyl]-2-(3-oxido-3-oxo-propyl)-2,3-dihydro-1,4-benzodioxine-5-carboxylate
##########          FlexRecCode: 1
##########               Number:                  499
##########   Ligand Source File: /raid1/people/rgc/Examples/sampl4/screening/ligands/build_1//sampl4-hivint-00000
##########           GlobalRank: 88
##########                 Rank:                    1
##########               Setnum:                  164
##########             Matchnum:                 6998
##########                Cloud:                    1
##########        Electrostatic:           -37.827011
##########        Van der Waals:           -19.224277
##########  Ligand Polar Desolv:            24.479654
########## Ligand Apolar Desolv:            -3.010748
##########      Internal Energy:             0.000000
##########      Receptor Energy: 0.0
########## Receptor Desolvation:             0.000000
########## Receptor Hydrophobic:             0.000000
##########         Total Energy: -35.58
##########        Ligand Charge:            -1.000000
##########            Arbitrary:    +999.9990
##########     heavy atom count:   40
##########           pose count:    1
##########        Ligand Energy:             0.000000
# num electro vdwattr vdwrepu polsolv apolsol rdesolv rhydroe totalscore fullpol fullapo
#   1   -3.11   -0.84    0.12    7.16   -0.10    0.00    0.00       3.23   29.12   -0.41
#   2    2.30   -0.51    0.03   -3.20   -0.03    0.00    0.00      -1.41  -16.31   -0.16
#   3   -2.54   -0.24    0.01    3.72   -0.05    0.00    0.00       0.89   31.18   -0.43
#   4   -0.93   -0.56    0.10    1.06   -0.07    0.00    0.00      -0.40    3.86   -0.25
#   5   -0.79   -0.70    0.08    0.51   -0.06    0.00    0.00      -0.96    1.45   -0.18
#   6    0.67   -0.50    0.03   -0.53   -0.03    0.00    0.00      -0.37   -1.85   -0.12
#   7    0.41   -0.90    0.13   -0.30   -0.05    0.00    0.00      -0.72   -0.74   -0.12
#   8   -6.45   -0.90    0.07    3.34    0.10    0.00    0.00      -3.84    8.81    0.27
#   9    1.58   -0.88    0.08   -0.18   -0.09    0.00    0.00       0.50   -0.63   -0.30
#  10   -1.58   -1.03    0.10    0.93   -0.10    0.00    0.00      -1.68    2.81   -0.30
#  11   14.56   -1.58    0.37   -5.13   -0.06    0.00    0.00       8.15  -13.12   -0.15
#  12  -28.33   -2.64    2.83    9.67   -0.22    0.00    0.00     -18.68   26.18   -0.59
#  13  -16.39   -1.88    0.34    7.13   -0.12    0.00    0.00     -10.92   14.55   -0.25
#  14   -0.91   -1.26    0.18    0.15   -0.07    0.00    0.00      -1.90    0.48   -0.23
#  15    0.11   -1.51    1.02   -0.05   -0.10    0.00    0.00      -0.53   -0.15   -0.28
#  16   -0.21   -0.76    0.12    0.03    0.02    0.00    0.00      -0.80    0.13    0.07
#  17    0.63   -0.01    0.00   -0.41    0.04    0.00    0.00       0.25   -2.90    0.30
#  18   -0.13   -0.97    0.30    0.04   -0.10    0.00    0.00      -0.86    0.14   -0.37
#  19    0.63   -1.94    0.59    0.21   -0.12    0.00    0.00      -0.63    0.61   -0.35
#  20    0.00   -1.29    0.38    0.23   -0.10    0.00    0.00      -0.78    0.80   -0.34
#  21    0.08   -0.31    0.02    0.01   -0.05    0.00    0.00      -0.25    0.08   -0.28
#  22   -0.15   -0.19    0.00   -0.01   -0.02    0.00    0.00      -0.36   -0.20   -0.31
#  23   -0.13   -0.15    0.00   -0.04   -0.02    0.00    0.00      -0.34   -0.64   -0.39
#  24   -0.07   -0.07    0.00   -0.01   -0.01    0.00    0.00      -0.17   -0.50   -0.47
#  25   -0.09   -0.03    0.00    0.00   -0.01    0.00    0.00      -0.14   -0.24   -0.47
#  26   -0.09   -0.05    0.00    0.00   -0.01    0.00    0.00      -0.14    0.18   -0.44
#  27   -0.16   -0.12    0.00    0.03   -0.02    0.00    0.00      -0.27    0.53   -0.40
#  28    0.90   -0.20    0.01   -0.42   -0.05    0.00    0.00       0.24   -5.09   -0.63
#  29   -1.21   -0.42    0.05    1.09    0.03    0.00    0.00      -0.45    7.23    0.22
#  30   -0.94   -0.15    0.00    0.46    0.14    0.00    0.00      -0.49    7.87    2.32
#  31    0.23   -0.13    0.00   -0.23   -0.03    0.00    0.00      -0.16   -3.20   -0.44
#  32   -0.13   -0.14    0.00    0.10   -0.02    0.00    0.00      -0.19    1.69   -0.37
#  33   -0.08   -0.40    0.05    0.20   -0.06    0.00    0.00      -0.29    1.42   -0.46
#  34   -0.18   -0.54    0.28    0.14   -0.06    0.00    0.00      -0.37    1.16   -0.47
#  35   -0.13   -0.12    0.01    0.05   -0.02    0.00    0.00      -0.22    0.93   -0.47
#  36   -0.12   -0.04    0.00    0.03   -0.01    0.00    0.00      -0.15    1.25   -0.47
#  37   -0.10   -0.06    0.00    0.04   -0.01    0.00    0.00      -0.13    1.69   -0.46
#  38   -0.59   -1.47    0.34    0.07   -0.12    0.00    0.00      -1.77    0.22   -0.39
#  39   -0.66   -1.28    0.19    0.46   -0.14    0.00    0.00      -1.43    1.50   -0.46
#  40    0.62   -0.91    0.09    0.04   -0.08    0.00    0.00      -0.24    0.14   -0.30
#  41   -2.63   -0.82    0.16    2.08    0.17    0.00    0.00      -1.04    7.57    0.62
#  42    0.21   -0.19    0.02   -0.43   -0.05    0.00    0.00      -0.44   -2.27   -0.27
#  43    0.25   -0.36    0.45   -0.46   -0.05    0.00    0.00      -0.17   -2.44   -0.28
#  44    1.00   -0.35    0.07   -0.72   -0.09    0.00    0.00      -0.09   -2.14   -0.28
#  45    0.59   -0.25    0.04   -0.33   -0.07    0.00    0.00      -0.02   -1.30   -0.28
#  46    1.17   -0.10    0.00   -0.18   -0.03    0.00    0.00       0.87   -1.79   -0.28
#  47    3.04   -0.58    0.46   -1.12   -0.11    0.00    0.00       1.70   -2.94   -0.28
#  48    1.04   -0.40    0.12   -0.54   -0.10    0.00    0.00       0.12   -1.51   -0.28
#  49    0.40   -0.70    1.13    0.33   -0.08    0.00    0.00       1.08    1.14   -0.27
#  50   -0.64   -1.15    2.29   -0.26   -0.06    0.00    0.00       0.17   -0.64   -0.15
#  51   -0.04   -0.11    0.01    0.10   -0.02    0.00    0.00      -0.07    0.93   -0.20
#  52   -1.64   -1.08    1.71    0.68   -0.09    0.00    0.00      -0.42    2.23   -0.28
#  53   -1.09   -1.01    1.36   -0.24   -0.10    0.00    0.00      -1.08   -0.56   -0.22
#  54    0.06   -0.09    0.01   -0.01   -0.02    0.00    0.00      -0.07   -0.15   -0.27
#  55    0.01   -0.39    0.17   -0.14   -0.08    0.00    0.00      -0.42   -0.51   -0.28
#  56    1.27   -0.09    0.01    0.00   -0.01    0.00    0.00       1.17    0.02   -0.14
#  57    0.26   -0.13    0.01    0.30   -0.04    0.00    0.00       0.42    2.31   -0.27
#  58    0.23   -0.05    0.00    0.12   -0.01    0.00    0.00       0.30    2.52   -0.28
#  59    0.08   -0.01    0.00    0.02    0.00    0.00    0.00       0.09    1.51   -0.28
#  60    0.10    0.00    0.00    0.00    0.00    0.00    0.00       0.10    0.58   -0.28
#  61    0.14   -0.01    0.00    0.00    0.00    0.00    0.00       0.13   -0.26   -0.22
#  62    0.45    0.00    0.00   -0.06    0.01    0.00    0.00       0.40   -3.35    0.43
#  63    0.14   -0.03    0.00    0.00   -0.01    0.00    0.00       0.10   -0.17   -0.28
#  64    0.12   -0.08    0.00   -0.05   -0.02    0.00    0.00      -0.02   -0.68   -0.28
#  65   -0.37   -0.18    0.03   -0.26   -0.05    0.00    0.00      -0.82   -1.46   -0.28
#  66    0.26   -0.56    1.62   -0.17   -0.04    0.00    0.00       1.11   -1.10   -0.28
#  67    0.13   -0.02    0.00   -0.02   -0.01    0.00    0.00       0.09   -0.90   -0.28
#  68    0.10    0.00    0.00   -0.01    0.00    0.00    0.00       0.09   -1.20   -0.28
#  69    0.13   -0.01    0.00   -0.01    0.00    0.00    0.00       0.11   -1.57   -0.28
#  70    0.43   -0.42    0.28    0.02   -0.07    0.00    0.00       0.24    0.07   -0.28
#  71    0.43   -0.34    0.08   -0.52   -0.08    0.00    0.00      -0.44   -1.78   -0.28

@<TRIPOS>MOLECULE
       AVX38753_0        61
   71    74     0     0     0



@<TRIPOS>ATOM
      1 O1          6.1574   -23.9445   -21.7182 O.co2      1          -0.7002
      2 C1          6.1408   -24.7238   -22.6557 C.2        1           0.4906
      3 O2          6.0952   -24.3018   -23.7987 O.co2      1          -0.7067
      4 C2          6.1830   -26.2087   -22.4018 C.3        1          -0.1800
      5 C3          7.4682   -26.5615   -21.6505 C.3        1          -0.0816
      6 C4          8.6792   -26.1534   -22.4918 C.3        1           0.0501
      7 C5          9.9717   -26.5323   -21.7562 C.3        1           0.0207
      8 O3         11.0820   -26.1515   -22.5761 O.3        1          -0.2605
      9 C6         11.0133   -26.4853   -23.8903 C.ar       1           0.0914
     10 C7         12.1831   -26.4819   -24.6647 C.ar       1          -0.0919
     11 C8         13.4732   -26.1231   -24.0540 C.2        1           0.5282
     12 O4         13.8433   -24.9570   -24.0468 O.co2      1          -0.6373
     13 O5         14.1755   -26.9909   -23.5536 O.co2      1          -0.7100
     14 C9         12.1174   -26.8218   -26.0202 C.ar       1          -0.1134
     15 C10        13.3690   -26.8206   -26.8597 C.3        1           0.0606
     16 N1         13.0983   -26.1556   -28.1413 N.4        1          -0.3537
     17 H1         12.1838   -26.4239   -28.4729 H          1           0.4370
     18 C11        14.1129   -26.5567   -29.1250 C.3        1           0.0285
     19 C12        13.7649   -27.9135   -29.6807 C.2        1          -0.1682
     20 C13        13.0094   -28.0107   -30.7465 C.2        1          -0.1476
     21 C14        13.1442   -24.6989   -27.9565 C.3        1           0.0229
     22 C15        12.4091   -24.0259   -29.0867 C.ar       1          -0.0831
     23 C16        11.1792   -24.5021   -29.4922 C.ar       1          -0.1055
     24 C17        10.5030   -23.8853   -30.5295 C.ar       1          -0.0938
     25 C18        11.0541   -22.7877   -31.1671 C.ar       1          -0.1038
     26 C19        12.2826   -22.3013   -30.7713 C.ar       1          -0.0826
     27 C20        12.9680   -22.9159   -29.7217 C.ar       1          -0.1084
     28 C21        14.2826   -22.3964   -29.2883 C.2        1           0.5399
     29 O6         14.4366   -22.0092   -28.1464 O.2        1          -0.5105
     30 N2         15.3101   -22.3521   -30.1593 N.am       1          -0.7077
     31 C22        16.6127   -21.8375   -29.7299 C.3        1           0.1590
     32 C23        17.5808   -21.8954   -30.8834 C.ar       1          -0.1100
     33 C24        18.3478   -23.0275   -31.0858 C.ar       1          -0.0986
     34 C25        19.2359   -23.0806   -32.1438 C.ar       1          -0.1218
     35 C26        19.3565   -22.0018   -32.9998 C.ar       1          -0.1110
     36 C27        18.5888   -20.8701   -32.7979 C.ar       1          -0.1222
     37 C28        17.6977   -20.8187   -31.7423 C.ar       1          -0.0964
     38 C29        10.9078   -27.1570   -26.5869 C.ar       1          -0.1142
     39 C30         9.7536   -27.1617   -25.8213 C.ar       1          -0.1213
     40 C31         9.8013   -26.8291   -24.4765 C.ar       1           0.0630
     41 O7          8.6546   -26.8495   -23.7427 O.3        1          -0.2989
     42 H2          5.3202   -26.4995   -21.8026 H          1           0.0632
     43 H3          6.1606   -26.7407   -23.3530 H          1           0.0559
     44 H4          7.4907   -26.0295   -20.6994 H          1           0.0845
     45 H5          7.4985   -27.6355   -21.4669 H          1           0.0720
     46 H6          8.6581   -25.0781   -22.6691 H          1           0.0797
     47 H7         10.0205   -26.0051   -20.8035 H          1           0.1191
     48 H8          9.9944   -27.6082   -21.5832 H          1           0.0701
     49 H9         14.1594   -26.2860   -26.3328 H          1           0.1025
     50 H10        13.6847   -27.8476   -27.0428 H          1           0.1588
     51 H11        14.1410   -25.8284   -29.9354 H          1           0.1118
     52 H12        15.0892   -26.6013   -28.6423 H          1           0.1198
     53 H13        14.1384   -28.8058   -29.2004 H          1           0.1407
     54 H14        12.6360   -27.1184   -31.2269 H          1           0.0937
     55 H15        12.7601   -28.9831   -31.1448 H          1           0.1120
     56 H16        12.6723   -24.4378   -27.0094 H          1           0.1637
     57 H17        14.1822   -24.3663   -27.9490 H          1           0.1186
     58 H18        10.7436   -25.3585   -28.9989 H          1           0.1375
     59 H19         9.5406   -24.2623   -30.8433 H          1           0.1359
     60 H20        10.5214   -22.3113   -31.9768 H          1           0.1364
     61 H21        12.7118   -21.4448   -31.2697 H          1           0.1335
     62 H22        15.1870   -22.6611   -31.0706 H          1           0.3989
     63 H23        16.5040   -20.8048   -29.3983 H          1           0.0904
     64 H24        16.9904   -22.4453   -28.9077 H          1           0.0806
     65 H25        18.2535   -23.8703   -30.4171 H          1           0.1237
     66 H26        19.8356   -23.9648   -32.3016 H          1           0.1242
     67 H27        20.0508   -22.0430   -33.8260 H          1           0.1226
     68 H28        18.6834   -20.0271   -33.4664 H          1           0.1239
     69 H29        17.0953   -19.9359   -31.5868 H          1           0.1259
     70 H30        10.8590   -27.4174   -27.6338 H          1           0.1204
     71 H31         8.8100   -27.4257   -26.2755 H          1           0.1290
@<TRIPOS>BOND
     1    1    2 1
     2    2    3 2
     3    2    4 1
     4    4    5 1
     5    4   42 1
     6    4   43 1
     7    5    6 1
     8    5   44 1
     9    5   45 1
    10    6   41 1
    11    6    7 1
    12    6   46 1
    13    7    8 1
    14    7   47 1
    15    7   48 1
    16    8    9 1
    17    9   40 ar
    18    9   10 ar
    19   10   11 1
    20   10   14 ar
    21   11   12 1
    22   11   13 2
    23   14   15 1
    24   14   38 ar
    25   15   16 1
    26   15   49 1
    27   15   50 1
    28   16   17 1
    29   16   18 1
    30   16   21 1
    31   18   19 1
    32   18   51 1
    33   18   52 1
    34   19   20 2
    35   19   53 1
    36   20   54 1
    37   20   55 1
    38   21   22 1
    39   21   56 1
    40   21   57 1
    41   22   27 ar
    42   22   23 ar
    43   23   24 ar
    44   23   58 1
    45   24   25 ar
    46   24   59 1
    47   25   26 ar
    48   25   60 1
    49   26   27 ar
    50   26   61 1
    51   27   28 1
    52   28   29 2
    53   28   30 am
    54   30   31 1
    55   30   62 1
    56   31   32 1
    57   31   63 1
    58   31   64 1
    59   32   37 ar
    60   32   33 ar
    61   33   34 ar
    62   33   65 1
    63   34   35 ar
    64   34   66 1
    65   35   36 ar
    66   35   67 1
    67   36   37 ar
    68   36   68 1
    69   37   69 1
    70   38   39 ar
    71   38   70 1
    72   39   40 ar
    73   39   71 1
    74   40   41 1
