AVX38784_5, 3
##########                 Name:           AVX38784_0
##########          Protonation:                   77
##########               SMILES:   C[C@H](C)NC(=O)c1ccccc1C[NH+](C)Cc2ccc3c(c2C(=O)[O-])OC[C@@H](O3)CCC(=O)[O-]
##########            Long Name:   ]methyl]-2-(3-oxido-3-oxo-propyl)-2,3-dihydro-1,4-benzodioxine-5-carboxylate
##########          FlexRecCode: 1
##########               Number:                  229
##########   Ligand Source File: /raid1/people/rgc/Examples/sampl4/screening/ligands/build_1//sampl4-hivint-00000
##########           GlobalRank: 118
##########                 Rank:                    1
##########               Setnum:                   14
##########             Matchnum:                17030
##########                Cloud:                    1
##########        Electrostatic:           -37.330322
##########        Van der Waals:           -12.113693
##########  Ligand Polar Desolv:            23.196375
########## Ligand Apolar Desolv:            -2.315324
##########      Internal Energy:             0.000000
##########      Receptor Energy: 0.0
########## Receptor Desolvation:             0.000000
########## Receptor Hydrophobic:             0.000000
##########         Total Energy: -28.56
##########        Ligand Charge:            -1.000000
##########            Arbitrary:    +999.9990
##########     heavy atom count:   35
##########           pose count:    1
##########        Ligand Energy:             0.000000
# num electro vdwattr vdwrepu polsolv apolsol rdesolv rhydroe totalscore fullpol fullapo
#   1   -0.10   -0.08    0.00   -0.01   -0.01    0.00    0.00      -0.19   -0.20   -0.20
#   2   -0.09   -0.32    0.09   -0.02   -0.03    0.00    0.00      -0.37   -0.19   -0.24
#   3    0.10   -0.24    0.04   -0.02   -0.03    0.00    0.00      -0.15   -0.14   -0.25
#   4   -0.12   -0.97    1.02    0.08   -0.04    0.00    0.00      -0.03    0.39   -0.19
#   5   -0.41   -0.15    0.00    0.00    0.12    0.00    0.00      -0.43   -0.02    1.82
#   6    0.34   -0.08    0.00   -0.04   -0.02    0.00    0.00       0.20   -1.25   -0.64
#   7   -0.74   -0.09    0.00    0.12    0.01    0.00    0.00      -0.69    3.00    0.32
#   8   -0.06   -0.05    0.00    0.00   -0.01    0.00    0.00      -0.12    0.13   -0.41
#   9   -0.03   -0.03    0.00    0.00   -0.01    0.00    0.00      -0.07   -0.12   -0.44
#  10   -0.04   -0.02    0.00    0.00    0.00    0.00    0.00      -0.06   -0.18   -0.47
#  11   -0.02   -0.01    0.00    0.00    0.00    0.00    0.00      -0.04    0.01   -0.47
#  12   -0.06   -0.03    0.00    0.00   -0.01    0.00    0.00      -0.09    0.14   -0.34
#  13   -0.03   -0.05    0.00    0.00   -0.01    0.00    0.00      -0.09    0.07   -0.39
#  14    0.04   -0.10    0.00    0.00   -0.02    0.00    0.00      -0.08   -0.06   -0.26
#  15   -0.22   -0.28    0.02    0.01    0.02    0.00    0.00      -0.45    0.07    0.16
#  16    0.22    0.00    0.00   -0.09    0.01    0.00    0.00       0.15   -1.94    0.33
#  17   -0.03   -0.16    0.01   -0.04   -0.04    0.00    0.00      -0.26   -0.37   -0.41
#  18    0.04   -1.11    0.65   -0.04   -0.07    0.00    0.00      -0.54   -0.17   -0.29
#  19   -0.31   -1.54    0.43    0.10   -0.08    0.00    0.00      -1.41    0.34   -0.30
#  20   -0.76   -2.56    1.06   -0.04   -0.15    0.00    0.00      -2.45   -0.11   -0.40
#  21   -1.80   -2.92    2.31    0.29   -0.16    0.00    0.00      -2.28    0.80   -0.46
#  22    0.86   -1.24    0.32    0.01   -0.09    0.00    0.00      -0.13    0.04   -0.30
#  23   -5.27   -0.89    0.18    1.82    0.18    0.00    0.00      -3.99    6.33    0.62
#  24    0.58   -0.45    0.03   -0.42   -0.03    0.00    0.00      -0.29   -1.59   -0.12
#  25   -1.06   -0.81    0.12    0.51   -0.07    0.00    0.00      -1.31    1.37   -0.18
#  26   -3.11   -0.70    0.09    1.17   -0.08    0.00    0.00      -2.63    3.62   -0.24
#  27   14.59   -1.10    0.18   -5.24   -0.05    0.00    0.00       8.37  -15.63   -0.16
#  28  -26.48   -2.53    1.56   12.88   -0.19    0.00    0.00     -14.76   28.37   -0.41
#  29  -23.12   -0.91    0.17    9.04   -0.13    0.00    0.00     -14.95   30.62   -0.43
#  30    0.13   -0.74    0.31   -0.15   -0.04    0.00    0.00      -0.48   -0.48   -0.12
#  31   -1.30   -0.56    0.05    1.98    0.07    0.00    0.00       0.23    8.00    0.27
#  32    0.53   -0.81    0.11   -0.09   -0.07    0.00    0.00      -0.34   -0.39   -0.30
#  33   -0.26   -1.06    0.36    0.76   -0.09    0.00    0.00      -0.28    3.34   -0.40
#  34    0.28   -0.67    0.13   -2.04   -0.03    0.00    0.00      -2.31  -12.20   -0.15
#  35   -0.17   -1.36    0.63    3.34   -0.07    0.00    0.00       2.37   14.90   -0.30
#  36   -0.29   -0.20    0.00    2.26   -0.05    0.00    0.00       1.72   24.48   -0.59
#  37    0.03   -0.02    0.00    0.00   -0.01    0.00    0.00       0.01    0.10   -0.28
#  38    0.03   -0.01    0.00    0.00    0.00    0.00    0.00       0.02    0.12   -0.26
#  39    0.08   -0.02    0.00    0.00   -0.01    0.00    0.00       0.06    0.02   -0.28
#  40    0.04   -0.13    0.04    0.03   -0.04    0.00    0.00      -0.05    0.25   -0.28
#  41    0.06   -0.15    0.06    0.02   -0.03    0.00    0.00      -0.06    0.13   -0.28
#  42    0.18   -0.04    0.00   -0.01   -0.01    0.00    0.00       0.12   -0.17   -0.26
#  43    0.07   -0.11    0.02   -0.01   -0.03    0.00    0.00      -0.06   -0.10   -0.28
#  44    0.04   -0.46    0.84   -0.03   -0.06    0.00    0.00       0.34   -0.13   -0.28
#  45    0.13   -0.84    1.90   -0.02   -0.07    0.00    0.00       1.10   -0.08   -0.28
#  46    0.21    0.00    0.00    0.03    0.01    0.00    0.00       0.25    1.27    0.45
#  47    0.06   -0.01    0.00    0.01    0.00    0.00    0.00       0.05    0.84   -0.22
#  48    0.04    0.00    0.00    0.00    0.00    0.00    0.00       0.04    0.65   -0.28
#  49    0.04    0.00    0.00    0.00    0.00    0.00    0.00       0.04    0.16   -0.28
#  50    0.05   -0.01    0.00    0.00    0.00    0.00    0.00       0.05   -0.06   -0.18
#  51    0.14   -0.03    0.00   -0.01   -0.01    0.00    0.00       0.09   -0.44   -0.26
#  52    0.11   -0.03    0.00    0.01   -0.01    0.00    0.00       0.09    0.39   -0.23
#  53    0.05   -0.07    0.00    0.12   -0.02    0.00    0.00       0.09    1.75   -0.28
#  54    0.05   -0.04    0.00    0.03   -0.01    0.00    0.00       0.04    0.77   -0.18
#  55    0.05   -0.02    0.00    0.01    0.00    0.00    0.00       0.04    0.49   -0.23
#  56    0.15   -0.39    0.35   -0.13   -0.04    0.00    0.00      -0.05   -0.66   -0.20
#  57    0.05   -0.82    1.15    0.26   -0.08    0.00    0.00       0.56    0.92   -0.27
#  58    0.34   -0.75    0.41    0.33   -0.11    0.00    0.00       0.22    0.84   -0.28
#  59    3.17   -0.99    1.16   -0.46   -0.10    0.00    0.00       2.77   -1.25   -0.28
#  60    0.84   -0.09    0.00   -0.14   -0.02    0.00    0.00       0.60   -1.64   -0.28
#  61    1.12   -0.33    0.07   -0.42   -0.09    0.00    0.00       0.35   -1.30   -0.28
#  62    0.65   -0.37    0.09   -0.64   -0.09    0.00    0.00      -0.36   -1.98   -0.28
#  63    0.93   -0.42    0.19   -0.60   -0.07    0.00    0.00       0.02   -2.29   -0.28
#  64    0.82   -0.14    0.01   -0.29   -0.04    0.00    0.00       0.36   -2.22   -0.27
#  65    0.68   -0.91    3.89   -0.63   -0.07    0.00    0.00       2.96   -2.65   -0.28
#  66    0.61   -0.21    0.02   -0.37   -0.07    0.00    0.00      -0.02   -1.58   -0.28

@<TRIPOS>MOLECULE
       AVX38784_0        77
   66    68     0     0     0



@<TRIPOS>ATOM
      1 C1          6.4693   -23.5220   -27.8011 C.3        1          -0.1541
      2 C2          5.8872   -24.7935   -27.1803 C.3        1          -0.1334
      3 C3          5.4237   -24.4981   -25.7524 C.3        1           0.1404
      4 C4          4.8416   -25.7695   -25.1318 C.3        1          -0.1670
      5 N1          4.3969   -23.4533   -25.7788 N.am       1          -0.7155
      6 C5          4.5990   -22.2932   -25.1231 C.2        1           0.5601
      7 O1          5.6332   -22.1140   -24.5099 O.2        1          -0.5339
      8 C6          3.5630   -21.2389   -25.1496 C.ar       1          -0.1211
      9 C7          2.7165   -21.1155   -26.2528 C.ar       1          -0.0741
     10 C8          1.7516   -20.1300   -26.2710 C.ar       1          -0.1169
     11 C9          1.6220   -19.2644   -25.1991 C.ar       1          -0.0710
     12 C10         2.4575   -19.3813   -24.1028 C.ar       1          -0.1430
     13 C11         3.4231   -20.3664   -24.0694 C.ar       1          -0.0526
     14 C12         4.3287   -20.4960   -22.8718 C.3        1           0.0509
     15 N2          3.7214   -21.4099   -21.8952 N.4        1          -0.3732
     16 H1          3.5916   -22.3165   -22.3185 H          1           0.4292
     17 C13         2.4200   -20.8775   -21.4697 C.3        1          -0.0634
     18 C14         4.6041   -21.5361   -20.7279 C.3        1           0.0591
     19 C15         5.7156   -22.5045   -21.0410 C.ar       1          -0.1331
     20 C16         7.0133   -22.1994   -20.6951 C.ar       1          -0.1129
     21 C17         8.0398   -23.0848   -20.9786 C.ar       1          -0.1203
     22 C18         7.7743   -24.2883   -21.6133 C.ar       1           0.0660
     23 O2          8.7990   -25.1457   -21.8745 O.3        1          -0.2954
     24 C19         8.5486   -26.1718   -22.8411 C.3        1           0.0487
     25 C20         9.6441   -27.2367   -22.7587 C.3        1          -0.0829
     26 C21        10.8874   -26.7481   -23.5046 C.3        1          -0.1809
     27 C22        11.3806   -25.4703   -22.8761 C.2        1           0.4906
     28 O3         11.7163   -25.4575   -21.7042 O.co2      1          -0.6997
     29 O4         11.4440   -24.4495   -23.5397 O.co2      1          -0.7061
     30 C23         7.1864   -26.8054   -22.5277 C.3        1           0.0181
     31 O5          6.1889   -25.7807   -22.5983 O.3        1          -0.2585
     32 C24         6.4707   -24.6101   -21.9710 C.ar       1           0.0884
     33 C25         5.4294   -23.7167   -21.6780 C.ar       1          -0.1255
     34 C26         4.0435   -24.0505   -22.0442 C.2        1           0.5225
     35 O6          3.3300   -24.6522   -21.2532 O.co2      1          -0.7092
     36 O7          3.6052   -23.7263   -23.1393 O.co2      1          -0.6285
     37 H2          6.7995   -23.7325   -28.8183 H          1           0.0579
     38 H3          5.7055   -22.7447   -27.8206 H          1           0.0534
     39 H4          7.3176   -23.1829   -27.2065 H          1           0.0567
     40 H5          5.0389   -25.1326   -27.7749 H          1           0.0687
     41 H6          6.6511   -25.5708   -27.1608 H          1           0.0817
     42 H7          6.2720   -24.1588   -25.1580 H          1           0.0926
     43 H8          4.5115   -25.5591   -24.1146 H          1           0.0577
     44 H9          3.9934   -26.1086   -25.7264 H          1           0.0683
     45 H10         5.6056   -26.5469   -25.1124 H          1           0.0643
     46 H11         3.5717   -23.5964   -26.2681 H          1           0.3999
     47 H12         2.8171   -21.7899   -27.0903 H          1           0.1328
     48 H13         1.0961   -20.0334   -27.1238 H          1           0.1375
     49 H14         0.8654   -18.4941   -25.2186 H          1           0.1390
     50 H15         2.3514   -18.7024   -23.2696 H          1           0.1295
     51 H16         5.2943   -20.8909   -23.1875 H          1           0.1505
     52 H17         4.4688   -19.5164   -22.4146 H          1           0.1473
     53 H18         1.9693   -21.5558   -20.7450 H          1           0.1168
     54 H19         2.5600   -19.8981   -21.0125 H          1           0.1161
     55 H20         1.7649   -20.7838   -22.3360 H          1           0.1218
     56 H21         5.0286   -20.5617   -20.4863 H          1           0.1658
     57 H22         4.0308   -21.9038   -19.8768 H          1           0.1107
     58 H23         7.2317   -21.2645   -20.2006 H          1           0.1286
     59 H24         9.0541   -22.8359   -20.7037 H          1           0.1365
     60 H25         8.5319   -25.7385   -23.8411 H          1           0.0829
     61 H26         9.8956   -27.4191   -21.7139 H          1           0.0739
     62 H27         9.2874   -28.1609   -23.2132 H          1           0.0869
     63 H28        11.6679   -27.5068   -23.4460 H          1           0.0565
     64 H29        10.6359   -26.5656   -24.5495 H          1           0.0635
     65 H30         6.9662   -27.5838   -23.2583 H          1           0.1243
     66 H31         7.2023   -27.2346   -21.5259 H          1           0.0756
@<TRIPOS>BOND
     1    1    2 1
     2    1   37 1
     3    1   38 1
     4    1   39 1
     5    2    3 1
     6    2   40 1
     7    2   41 1
     8    3    4 1
     9    3    5 1
    10    3   42 1
    11    4   43 1
    12    4   44 1
    13    4   45 1
    14    5    6 am
    15    5   46 1
    16    6    7 2
    17    6    8 1
    18    8   13 ar
    19    8    9 ar
    20    9   10 ar
    21    9   47 1
    22   10   11 ar
    23   10   48 1
    24   11   12 ar
    25   11   49 1
    26   12   13 ar
    27   12   50 1
    28   13   14 1
    29   14   15 1
    30   14   51 1
    31   14   52 1
    32   15   16 1
    33   15   17 1
    34   15   18 1
    35   17   53 1
    36   17   54 1
    37   17   55 1
    38   18   19 1
    39   18   56 1
    40   18   57 1
    41   19   33 ar
    42   19   20 ar
    43   20   21 ar
    44   20   58 1
    45   21   22 ar
    46   21   59 1
    47   22   32 ar
    48   22   23 1
    49   23   24 1
    50   24   25 1
    51   24   30 1
    52   24   60 1
    53   25   26 1
    54   25   61 1
    55   25   62 1
    56   26   27 1
    57   26   63 1
    58   26   64 1
    59   27   28 1
    60   27   29 2
    61   30   31 1
    62   30   65 1
    63   30   66 1
    64   31   32 1
    65   32   33 ar
    66   33   34 1
    67   34   35 1
    68   34   36 2
