AVX38673_1, 3
##########                 Name:           AVX38673_0
##########          Protonation:                  100
##########               SMILES:   CCCCNC(=O)[C@H](c1ccccc1)NC(=O)N(C)Cc2ccc3c(c2C(=O)[O-])OCO3
##########            Long Name:   1-phenyl-ethyl]carbamoyl-methyl-amino]methyl]-1,3-benzodioxole-4-carboxylate
##########          FlexRecCode: 1
##########               Number:                  350
##########   Ligand Source File: /raid1/people/rgc/Examples/sampl4/screening/ligands/build_1//sampl4-hivint-00000
##########           GlobalRank: 3
##########                 Rank:                    1
##########               Setnum:                  160
##########             Matchnum:                16744
##########                Cloud:                    1
##########        Electrostatic:           -49.292042
##########        Van der Waals:           -20.110689
##########  Ligand Polar Desolv:            21.240595
########## Ligand Apolar Desolv:            -1.877282
##########      Internal Energy:             0.000000
##########      Receptor Energy: 0.0
########## Receptor Desolvation:             0.000000
########## Receptor Hydrophobic:             0.000000
##########         Total Energy: -50.04
##########        Ligand Charge:            -1.000000
##########            Arbitrary:    +999.9990
##########     heavy atom count:   32
##########           pose count:    1
##########        Ligand Energy:             0.000000
# num electro vdwattr vdwrepu polsolv apolsol rdesolv rhydroe totalscore fullpol fullapo
#   1   -0.19   -0.06    0.00    0.01   -0.01    0.00    0.00      -0.25    0.33   -0.19
#   2   -0.21   -0.20    0.02    0.03   -0.03    0.00    0.00      -0.39    0.31   -0.25
#   3   -0.22   -0.15    0.01    0.02   -0.02    0.00    0.00      -0.36    0.26   -0.22
#   4    0.28   -0.50    0.20   -0.10   -0.07    0.00    0.00      -0.18   -0.61   -0.42
#   5   -2.11   -1.03    0.59    0.72    0.39    0.00    0.00      -1.44    4.22    2.28
#   6    1.31   -0.36    0.04   -0.64   -0.08    0.00    0.00       0.28   -5.07   -0.60
#   7   -1.07   -0.13    0.00    0.48    0.03    0.00    0.00      -0.69    7.06    0.38
#   8    0.66   -0.37    0.04   -0.39   -0.05    0.00    0.00      -0.11   -2.09   -0.25
#   9   -4.76   -0.64    0.05    1.96    0.39    0.00    0.00      -3.00    8.62    1.70
#  10   11.37   -0.88    0.13   -3.52   -0.59    0.00    0.00       6.52  -12.32   -2.05
#  11  -18.32   -1.95    2.40    4.81    0.11    0.00    0.00     -12.94   15.53    0.37
#  12   -9.35   -0.93    0.07    3.26    0.38    0.00    0.00      -6.56   10.29    1.21
#  13    0.50   -1.18    0.33   -0.19   -0.16    0.00    0.00      -0.70   -0.56   -0.48
#  14    4.54   -0.80    0.10   -1.93   -0.11    0.00    0.00       1.80   -5.39   -0.31
#  15   -1.08   -0.91    0.07    0.45   -0.14    0.00    0.00      -1.62    1.34   -0.41
#  16   -1.70   -1.45    0.33    0.57   -0.16    0.00    0.00      -2.41    1.46   -0.42
#  17   -1.14   -1.13    0.15    0.21   -0.17    0.00    0.00      -2.09    0.57   -0.47
#  18   -0.04   -0.93    0.10   -0.07   -0.10    0.00    0.00      -1.03   -0.23   -0.33
#  19   -2.88   -0.98    0.13    1.59    0.17    0.00    0.00      -1.98    4.92    0.52
#  20    1.71   -0.63    0.08   -0.79    0.01    0.00    0.00       0.38   -2.98    0.02
#  21   -4.50   -1.00    0.21    2.61    0.09    0.00    0.00      -2.59    9.34    0.34
#  22    1.49   -0.94    0.19   -0.21   -0.08    0.00    0.00       0.45   -0.81   -0.32
#  23   -2.99   -0.81    0.06    1.90   -0.12    0.00    0.00      -1.97    6.51   -0.41
#  24   18.81   -1.34    0.40   -6.52   -0.06    0.00    0.00      11.28  -18.45   -0.17
#  25  -34.04   -2.77    1.96   12.60   -0.14    0.00    0.00     -22.40   28.00   -0.32
#  26  -20.03   -1.44    0.97    8.91   -0.16    0.00    0.00     -11.74   31.64   -0.56
#  27   -0.04   -0.51    0.05    0.20   -0.05    0.00    0.00      -0.35    1.32   -0.33
#  28    0.31   -1.10    0.25    0.32   -0.10    0.00    0.00      -0.32    1.36   -0.44
#  29   -0.06   -0.78    0.10    0.29   -0.11    0.00    0.00      -0.57    1.22   -0.47
#  30   -0.09   -0.31    0.01    0.10   -0.05    0.00    0.00      -0.34    0.94   -0.47
#  31   -0.11   -0.17    0.00    0.06   -0.03    0.00    0.00      -0.24    0.96   -0.47
#  32   -0.11   -0.22    0.01    0.09   -0.04    0.00    0.00      -0.27    1.10   -0.45
#  33    0.07   -0.02    0.00    0.00    0.00    0.00    0.00       0.04   -0.13   -0.28
#  34    0.06   -0.01    0.00    0.00    0.00    0.00    0.00       0.05   -0.12   -0.28
#  35    0.06   -0.01    0.00    0.00    0.00    0.00    0.00       0.04   -0.12   -0.28
#  36    0.12   -0.05    0.00   -0.01   -0.02    0.00    0.00       0.05   -0.18   -0.28
#  37    0.13   -0.14    0.03   -0.02   -0.04    0.00    0.00      -0.05   -0.18   -0.28
#  38    0.10   -0.03    0.00   -0.01   -0.01    0.00    0.00       0.05   -0.17   -0.28
#  39    0.10   -0.02    0.00    0.00    0.00    0.00    0.00       0.08   -0.17   -0.28
#  40    0.19   -0.49    0.59   -0.07   -0.06    0.00    0.00       0.14   -0.33   -0.28
#  41    0.15   -0.06    0.01   -0.02   -0.02    0.00    0.00       0.05   -0.34   -0.28
#  42    1.43   -0.03    0.00   -0.33    0.11    0.00    0.00       1.18   -1.70    0.55
#  43    0.55   -0.18    0.03   -0.23   -0.05    0.00    0.00       0.12   -1.28   -0.26
#  44    1.57   -0.01    0.00   -0.55    0.05    0.00    0.00       1.06   -4.28    0.37
#  45    0.33   -0.58    0.31   -0.26   -0.09    0.00    0.00      -0.29   -0.81   -0.28
#  46    0.47   -0.17    0.01   -0.15   -0.05    0.00    0.00       0.12   -0.88   -0.28
#  47    0.19   -0.70    0.38   -0.31   -0.08    0.00    0.00      -0.52   -0.87   -0.23
#  48    2.00   -0.42    0.17   -0.61   -0.08    0.00    0.00       1.07   -2.04   -0.26
#  49    4.34   -0.35    0.17   -0.17   -0.05    0.00    0.00       3.93   -0.64   -0.21
#  50    1.25   -0.77    0.83   -0.94   -0.08    0.00    0.00       0.29   -2.61   -0.21
#  51    0.93   -0.27    0.06   -0.67   -0.08    0.00    0.00      -0.03   -2.32   -0.28
#  52    0.69   -0.07    0.00   -0.16   -0.02    0.00    0.00       0.43   -2.36   -0.28
#  53    0.43   -0.34    0.09   -0.46   -0.07    0.00    0.00      -0.35   -1.72   -0.28
#  54   -0.60   -0.39    0.15   -0.31   -0.07    0.00    0.00      -1.22   -1.17   -0.27
#  55   -0.20   -0.20    0.01   -0.23   -0.06    0.00    0.00      -0.68   -1.03   -0.28
#  56    0.12   -0.04    0.00   -0.03   -0.01    0.00    0.00       0.04   -0.82   -0.28
#  57    0.11   -0.01    0.00   -0.01    0.00    0.00    0.00       0.08   -0.84   -0.28
#  58    0.16   -0.02    0.00   -0.02   -0.01    0.00    0.00       0.11   -1.09   -0.28

@<TRIPOS>MOLECULE
       AVX38673_0       100
   58    60     0     0     0



@<TRIPOS>ATOM
      1 C1         14.6024   -18.9904   -30.1049 C.3        1          -0.1528
      2 C2         14.2004   -19.7081   -28.8148 C.3        1          -0.1214
      3 C3         12.7176   -20.0795   -28.8788 C.3        1          -0.1331
      4 C4         12.3156   -20.7972   -27.5887 C.3        1           0.1189
      5 N1         13.1178   -22.0137   -27.4364 N.am       1          -0.7237
      6 C5         12.6803   -23.1785   -27.9545 C.2        1           0.5209
      7 O1         11.6227   -23.2197   -28.5465 O.2        1          -0.5312
      8 C6         13.5054   -24.4299   -27.7978 C.3        1           0.1892
      9 N2         12.7309   -25.4375   -27.0691 N.am       1          -0.7311
     10 C7         12.7974   -25.4959   -25.7244 C.2        1           0.7086
     11 O2         13.5002   -24.7123   -25.1159 O.2        1          -0.5748
     12 N3         12.0850   -26.4230   -25.0540 N.am       1          -0.6274
     13 C8         11.2381   -27.3672   -25.7872 C.3        1           0.0740
     14 C9         12.1571   -26.4866   -23.5922 C.3        1           0.1930
     15 C10        10.7834   -26.2704   -23.0115 C.ar       1          -0.0520
     16 C11         9.9556   -27.3468   -22.7819 C.ar       1          -0.1271
     17 C12         8.6907   -27.1576   -22.2480 C.ar       1          -0.1016
     18 C13         8.2457   -25.8847   -21.9395 C.ar       1          -0.0030
     19 O3          7.0743   -25.4241   -21.4166 O.3        1          -0.3190
     20 C14         7.0062   -24.0269   -21.7393 C.3        1           0.2046
     21 O4          8.3962   -23.6703   -21.7788 O.3        1          -0.2765
     22 C15         9.0710   -24.7851   -22.1652 C.ar       1           0.0781
     23 C16        10.3508   -24.9760   -22.7000 C.ar       1          -0.1195
     24 C17        11.2337   -23.8227   -22.9378 C.2        1           0.5224
     25 O5         11.9976   -23.4459   -22.0596 O.co2      1          -0.6799
     26 O6         11.2037   -23.2409   -24.0135 O.co2      1          -0.6710
     27 C18        13.8706   -24.9644   -29.1587 C.ar       1          -0.0958
     28 C19        14.0464   -26.3229   -29.3433 C.ar       1          -0.0945
     29 C20        14.3813   -26.8132   -30.5917 C.ar       1          -0.1190
     30 C21        14.5403   -25.9453   -31.6553 C.ar       1          -0.1156
     31 C22        14.3635   -24.5863   -31.4710 C.ar       1          -0.1176
     32 C23        14.0243   -24.0965   -30.2237 C.ar       1          -0.1023
     33 H1         15.6588   -18.7258   -30.0594 H          1           0.0553
     34 H2         14.4292   -19.6487   -30.9561 H          1           0.0548
     35 H3         14.0057   -18.0852   -30.2181 H          1           0.0544
     36 H4         14.7971   -20.6131   -28.7015 H          1           0.0654
     37 H5         14.3737   -19.0497   -27.9637 H          1           0.0649
     38 H6         12.1208   -19.1745   -28.9922 H          1           0.0703
     39 H7         12.5443   -20.7380   -29.7300 H          1           0.0705
     40 H8         12.4888   -20.1389   -26.7374 H          1           0.0693
     41 H9         11.2592   -21.0620   -27.6342 H          1           0.0686
     42 H10        13.9636   -21.9808   -26.9629 H          1           0.4033
     43 H11        14.4143   -24.1986   -27.2423 H          1           0.1226
     44 H12        12.1701   -26.0626   -27.5546 H          1           0.4040
     45 H13        10.7436   -28.0352   -25.0820 H          1           0.0550
     46 H14        10.4870   -26.8171   -26.3541 H          1           0.0796
     47 H15        11.8534   -27.9518   -26.4711 H          1           0.0624
     48 H16        12.5300   -27.4648   -23.2889 H          1           0.1036
     49 H17        12.8317   -25.7117   -23.2278 H          1           0.1181
     50 H18        10.2941   -28.3445   -23.0195 H          1           0.1264
     51 H19         8.0490   -28.0084   -22.0725 H          1           0.1234
     52 H20         6.5361   -23.8732   -22.7106 H          1           0.1232
     53 H21         6.4828   -23.4716   -20.9609 H          1           0.0746
     54 H22        13.9223   -27.0014   -28.5123 H          1           0.1191
     55 H23        14.5194   -27.8746   -30.7357 H          1           0.1219
     56 H24        14.8022   -26.3277   -32.6307 H          1           0.1212
     57 H25        14.4879   -23.9078   -32.3021 H          1           0.1238
     58 H26        13.8826   -23.0354   -30.0804 H          1           0.1247
@<TRIPOS>BOND
     1    1    2 1
     2    1   33 1
     3    1   34 1
     4    1   35 1
     5    2    3 1
     6    2   36 1
     7    2   37 1
     8    3    4 1
     9    3   38 1
    10    3   39 1
    11    4    5 1
    12    4   40 1
    13    4   41 1
    14    5    6 am
    15    5   42 1
    16    6    7 2
    17    6    8 1
    18    8    9 1
    19    8   27 1
    20    8   43 1
    21    9   10 am
    22    9   44 1
    23   10   11 2
    24   10   12 am
    25   12   13 1
    26   12   14 1
    27   13   45 1
    28   13   46 1
    29   13   47 1
    30   14   15 1
    31   14   48 1
    32   14   49 1
    33   15   23 ar
    34   15   16 ar
    35   16   17 ar
    36   16   50 1
    37   17   18 ar
    38   17   51 1
    39   18   22 ar
    40   18   19 1
    41   19   20 1
    42   20   21 1
    43   20   52 1
    44   20   53 1
    45   21   22 1
    46   22   23 ar
    47   23   24 1
    48   24   25 1
    49   24   26 2
    50   27   32 ar
    51   27   28 ar
    52   28   29 ar
    53   28   54 1
    54   29   30 ar
    55   29   55 1
    56   30   31 ar
    57   30   56 1
    58   31   32 ar
    59   31   57 1
    60   32   58 1
