AVX38782_1, 3
##########                 Name:           AVX38782_0
##########          Protonation:                   61
##########               SMILES:   C=CC[NH+](Cc1ccccc1C(=O)NCC2CCC2)Cc3ccc4c(c3C(=O)[O-])OC[C@H](O4)CCC(=O)[O-]
##########            Long Name:   ]methyl]-2-(3-oxido-3-oxo-propyl)-2,3-dihydro-1,4-benzodioxine-5-carboxylate
##########          FlexRecCode: 1
##########               Number:                  581
##########   Ligand Source File: /raid1/people/rgc/Examples/sampl4/screening/ligands/build_1//sampl4-hivint-00000
##########           GlobalRank: 74
##########                 Rank:                    1
##########               Setnum:                  159
##########             Matchnum:                26254
##########                Cloud:                    1
##########        Electrostatic:           -42.474648
##########        Van der Waals:           -15.840729
##########  Ligand Polar Desolv:            24.019243
########## Ligand Apolar Desolv:            -2.459435
##########      Internal Energy:             0.000000
##########      Receptor Energy: 0.0
########## Receptor Desolvation:             0.000000
########## Receptor Hydrophobic:             0.000000
##########         Total Energy: -36.76
##########        Ligand Charge:            -1.000000
##########            Arbitrary:    +999.9990
##########     heavy atom count:   38
##########           pose count:    1
##########        Ligand Energy:             0.000000
# num electro vdwattr vdwrepu polsolv apolsol rdesolv rhydroe totalscore fullpol fullapo
#   1  -20.48   -0.95    0.30    7.74   -0.11    0.00    0.00     -13.50   29.35   -0.41
#   2   15.39   -1.35    0.36   -5.76   -0.06    0.00    0.00       8.58  -16.32   -0.16
#   3  -33.31   -3.83    7.05   12.60   -0.17    0.00    0.00     -17.67   31.09   -0.43
#   4   -3.29   -1.10    0.29    1.40   -0.09    0.00    0.00      -2.79    3.76   -0.24
#   5   -1.36   -0.94    0.22    0.57   -0.07    0.00    0.00      -1.57    1.56   -0.18
#   6    1.27   -1.02    0.15   -0.88   -0.05    0.00    0.00      -0.53   -2.05   -0.12
#   7    0.32   -1.41    0.53   -0.25   -0.05    0.00    0.00      -0.86   -0.56   -0.12
#   8   -3.47   -0.83    0.07    3.04    0.09    0.00    0.00      -1.09    8.74    0.27
#   9    1.38   -0.74    0.07   -0.17   -0.07    0.00    0.00       0.47   -0.68   -0.30
#  10   -0.81   -0.48    0.02    0.55   -0.06    0.00    0.00      -0.78    2.84   -0.30
#  11    2.43   -0.57    0.04   -2.84   -0.03    0.00    0.00      -0.97  -13.15   -0.15
#  12   -2.11   -0.77    0.22    5.16   -0.12    0.00    0.00       2.38   26.20   -0.59
#  13   -1.50   -1.08    0.35    3.81   -0.07    0.00    0.00       1.51   14.57   -0.25
#  14   -0.84   -0.33    0.01    0.06   -0.03    0.00    0.00      -1.13    0.48   -0.23
#  15    0.16   -0.12    0.00   -0.01   -0.02    0.00    0.00       0.01   -0.16   -0.28
#  16   -0.58   -0.09    0.00    0.01    0.00    0.00    0.00      -0.66    0.14    0.07
#  17    0.80    0.00    0.00   -0.09    0.01    0.00    0.00       0.72   -2.88    0.29
#  18    0.04   -0.05    0.00    0.00   -0.01    0.00    0.00      -0.02    0.14   -0.37
#  19   -0.15   -0.06    0.00    0.02   -0.01    0.00    0.00      -0.20    0.62   -0.35
#  20   -0.10   -0.03    0.00    0.01   -0.01    0.00    0.00      -0.13    0.77   -0.34
#  21    0.01   -0.05    0.00    0.00   -0.01    0.00    0.00      -0.05    0.08   -0.28
#  22   -0.04   -0.17    0.01   -0.01   -0.02    0.00    0.00      -0.24   -0.21   -0.31
#  23   -0.05   -0.17    0.00   -0.04   -0.03    0.00    0.00      -0.29   -0.66   -0.39
#  24   -0.04   -0.25    0.01   -0.06   -0.05    0.00    0.00      -0.38   -0.53   -0.47
#  25   -0.05   -0.46    0.04   -0.05   -0.07    0.00    0.00      -0.59   -0.33   -0.47
#  26   -0.05   -0.95    0.42    0.01   -0.09    0.00    0.00      -0.66    0.06   -0.44
#  27   -0.06   -0.46    0.09    0.07   -0.06    0.00    0.00      -0.43    0.46   -0.40
#  28    0.30   -0.54    0.13   -0.73   -0.10    0.00    0.00      -0.95   -4.67   -0.63
#  29   -0.24   -0.46    0.09    0.97    0.03    0.00    0.00       0.39    7.19    0.22
#  30   -0.43   -0.78    0.42    1.08    0.37    0.00    0.00       0.66    6.79    2.31
#  31    0.07   -0.24    0.03   -0.29   -0.05    0.00    0.00      -0.48   -2.41   -0.42
#  32   -0.06   -0.55    0.20    0.23   -0.05    0.00    0.00      -0.24    1.12   -0.24
#  33   -0.05   -0.22    0.01    0.14   -0.04    0.00    0.00      -0.16    1.06   -0.33
#  34   -0.04   -0.27    0.02    0.19   -0.05    0.00    0.00      -0.15    1.30   -0.34
#  35   -0.05   -0.91    0.37    0.60   -0.09    0.00    0.00      -0.08    2.20   -0.33
#  36   -1.36   -0.44    0.02    0.04   -0.07    0.00    0.00      -1.81    0.24   -0.39
#  37   -2.71   -0.77    0.06    0.46   -0.14    0.00    0.00      -3.09    1.55   -0.46
#  38    1.46   -0.91    0.13    0.04   -0.09    0.00    0.00       0.63    0.13   -0.30
#  39   -9.57   -1.28    0.23    3.08    0.25    0.00    0.00      -7.29    7.70    0.62
#  40    0.60   -0.41    0.14   -0.72   -0.08    0.00    0.00      -0.48   -2.49   -0.28
#  41    1.20   -0.51    0.28   -0.76   -0.09    0.00    0.00       0.12   -2.20   -0.27
#  42    1.03   -0.13    0.01   -0.16   -0.04    0.00    0.00       0.71   -1.23   -0.28
#  43    0.92   -0.66    0.60   -0.75   -0.09    0.00    0.00       0.02   -2.20   -0.28
#  44    2.02   -0.45    0.09   -0.81   -0.12    0.00    0.00       0.73   -1.82   -0.28
#  45    0.93   -0.62    0.40   -0.61   -0.12    0.00    0.00      -0.02   -1.47   -0.28
#  46    2.79   -1.03    1.67   -1.41   -0.13    0.00    0.00       1.89   -3.03   -0.28
#  47    0.18   -0.04    0.00    0.04   -0.01    0.00    0.00       0.17    1.09   -0.27
#  48    0.23   -0.03    0.00   -0.02    0.00    0.00    0.00       0.17   -0.65   -0.15
#  49    0.10   -0.01    0.00    0.01    0.00    0.00    0.00       0.10    0.93   -0.20
#  50    0.32   -0.02    0.00    0.05   -0.01    0.00    0.00       0.35    2.18   -0.28
#  51    0.20   -0.02    0.00   -0.01    0.00    0.00    0.00       0.17   -0.56   -0.22
#  52    0.06    0.00    0.00    0.00    0.00    0.00    0.00       0.06   -0.13   -0.27
#  53    0.07   -0.01    0.00    0.00    0.00    0.00    0.00       0.06   -0.50   -0.28
#  54    0.10   -0.01    0.00    0.00    0.00    0.00    0.00       0.08    0.02   -0.14
#  55    0.07   -0.01    0.00    0.03    0.00    0.00    0.00       0.08    2.24   -0.27
#  56    0.06   -0.03    0.00    0.07   -0.01    0.00    0.00       0.09    2.46   -0.28
#  57    0.04   -0.06    0.00    0.09   -0.02    0.00    0.00       0.06    1.52   -0.28
#  58    0.05   -0.10    0.00    0.06   -0.02    0.00    0.00      -0.01    0.72   -0.28
#  59    0.09   -0.44    0.38    0.00   -0.06    0.00    0.00      -0.03   -0.01   -0.22
#  60    0.28   -0.02    0.00   -0.32    0.06    0.00    0.00       0.01   -2.27    0.43
#  61    0.04   -0.04    0.00    0.01   -0.01    0.00    0.00      -0.01    0.20   -0.28
#  62    0.04   -0.03    0.00   -0.01   -0.01    0.00    0.00      -0.01   -0.37   -0.27
#  63    0.12   -0.32    0.20   -0.23   -0.06    0.00    0.00      -0.29   -1.08   -0.28
#  64    0.03   -0.03    0.00   -0.01   -0.01    0.00    0.00      -0.01   -0.58   -0.27
#  65    0.02   -0.10    0.01   -0.07   -0.03    0.00    0.00      -0.18   -0.69   -0.28
#  66    0.02   -0.05    0.00   -0.03   -0.01    0.00    0.00      -0.08   -0.59   -0.28
#  67    0.02   -0.06    0.00   -0.05   -0.01    0.00    0.00      -0.10   -0.89   -0.28
#  68    0.03   -0.38    0.13   -0.29   -0.09    0.00    0.00      -0.60   -0.94   -0.28
#  69    0.03   -0.45    0.23   -0.19   -0.08    0.00    0.00      -0.46   -0.66   -0.28
#  70    1.05   -0.07    0.00    0.00   -0.02    0.00    0.00       0.97    0.01   -0.28
#  71    3.96   -0.24    0.05   -0.58   -0.09    0.00    0.00       3.11   -1.81   -0.28

@<TRIPOS>MOLECULE
       AVX38782_0        61
   71    74     0     0     0



@<TRIPOS>ATOM
      1 O1         12.1705   -24.8453   -24.5705 O.co2      1          -0.6990
      2 C1         12.7682   -25.6708   -23.9013 C.2        1           0.4902
      3 O2         13.7684   -25.3465   -23.2840 O.co2      1          -0.7072
      4 C2         12.2675   -27.0905   -23.8324 C.3        1          -0.1782
      5 C3         10.8501   -27.1038   -23.2562 C.3        1          -0.0837
      6 C4         10.8653   -26.4994   -21.8507 C.3        1           0.0537
      7 C5          9.5915   -26.9009   -21.0975 C.3        1           0.0181
      8 O3          8.4761   -26.4447   -21.8695 O.3        1          -0.2608
      9 C6          8.5240   -25.1622   -22.3117 C.ar       1           0.0921
     10 C7          7.3471   -24.5284   -22.7354 C.ar       1          -0.0917
     11 C8          6.0644   -25.2493   -22.6997 C.2        1           0.5284
     12 O4          5.6993   -25.8967   -23.6715 O.co2      1          -0.6374
     13 O5          5.3635   -25.2013   -21.6982 O.co2      1          -0.7102
     14 C9          7.3989   -23.2067   -23.1919 C.ar       1          -0.1133
     15 C10         6.1393   -22.5168   -23.6487 C.3        1           0.0606
     16 N1          5.9491   -22.7467   -25.0871 N.4        1          -0.3535
     17 H1          6.1968   -23.6990   -25.3112 H          1           0.4372
     18 C11         6.8051   -21.8263   -25.8475 C.3        1           0.0284
     19 C12         6.9975   -22.3575   -27.2445 C.2        1          -0.1681
     20 C13         6.6106   -21.6466   -28.2746 C.2        1          -0.1477
     21 C14         4.5425   -22.5109   -25.4389 C.3        1           0.0231
     22 C15         3.7229   -23.7207   -25.0706 C.ar       1          -0.0838
     23 C16         3.1482   -23.8116   -23.8194 C.ar       1          -0.1054
     24 C17         2.3955   -24.9214   -23.4797 C.ar       1          -0.0946
     25 C18         2.2134   -25.9470   -24.3908 C.ar       1          -0.1039
     26 C19         2.7821   -25.8683   -25.6452 C.ar       1          -0.0833
     27 C20         3.5385   -24.7488   -25.9961 C.ar       1          -0.1083
     28 C21         4.1461   -24.6550   -27.3407 C.2        1           0.5382
     29 O6          3.5291   -24.1385   -28.2517 O.2        1          -0.5117
     30 N2          5.3841   -25.1423   -27.5563 N.am       1          -0.7100
     31 C22         5.9861   -25.0494   -28.8886 C.3        1           0.1270
     32 C23         6.3006   -26.4547   -29.4053 C.3        1          -0.1244
     33 C24         6.8619   -26.4763   -30.8308 C.3        1          -0.1366
     34 C25         5.4029   -26.4757   -31.2987 C.3        1          -0.1432
     35 C26         5.0838   -27.1873   -29.9800 C.3        1          -0.1290
     36 C27         8.6016   -22.5366   -23.2229 C.ar       1          -0.1141
     37 C28         9.7638   -23.1633   -22.8039 C.ar       1          -0.1215
     38 C29         9.7297   -24.4711   -22.3478 C.ar       1           0.0628
     39 O7         10.8802   -25.0708   -21.9361 O.3        1          -0.2991
     40 H2         12.2568   -27.5211   -24.8337 H          1           0.0538
     41 H3         12.9257   -27.6773   -23.1917 H          1           0.0630
     42 H4         10.1919   -26.5170   -23.8968 H          1           0.0736
     43 H5         10.4878   -28.1305   -23.2062 H          1           0.0845
     44 H6         11.7444   -26.8469   -21.3079 H          1           0.0760
     45 H7          9.5501   -27.9850   -20.9919 H          1           0.0732
     46 H8          9.5787   -26.4301   -20.1145 H          1           0.1195
     47 H9          5.2864   -22.9174   -23.1008 H          1           0.1023
     48 H10         6.2224   -21.4465   -23.4598 H          1           0.1586
     49 H11         6.3324   -20.8452   -25.8936 H          1           0.1118
     50 H12         7.7736   -21.7401   -25.3549 H          1           0.1197
     51 H13         7.4543   -23.3242   -27.3965 H          1           0.1406
     52 H14         6.1537   -20.6798   -28.1227 H          1           0.0938
     53 H15         6.7485   -22.0274   -29.2759 H          1           0.1120
     54 H16         4.1726   -21.6420   -24.8945 H          1           0.1636
     55 H17         4.4614   -22.3297   -26.5106 H          1           0.1182
     56 H18         3.2867   -23.0149   -23.1036 H          1           0.1372
     57 H19         1.9482   -24.9880   -22.4989 H          1           0.1357
     58 H20         1.6252   -26.8111   -24.1191 H          1           0.1362
     59 H21         2.6392   -26.6693   -26.3553 H          1           0.1335
     60 H22         5.8764   -25.5546   -26.8292 H          1           0.3971
     61 H23         5.2892   -24.5597   -29.5689 H          1           0.0835
     62 H24         6.9068   -24.4687   -28.8315 H          1           0.0726
     63 H25         6.8761   -27.0494   -28.6959 H          1           0.0932
     64 H26         7.4095   -25.5734   -31.1005 H          1           0.0838
     65 H27         7.4011   -27.3913   -31.0762 H          1           0.0639
     66 H28         4.9675   -25.4795   -31.3763 H          1           0.0717
     67 H29         5.2253   -27.0889   -32.1823 H          1           0.0786
     68 H30         5.2043   -28.2697   -30.0249 H          1           0.0717
     69 H31         4.1370   -26.8817   -29.5343 H          1           0.0878
     70 H32         8.6389   -21.5167   -23.5763 H          1           0.1202
     71 H33        10.7020   -22.6291   -22.8326 H          1           0.1289
@<TRIPOS>BOND
     1    1    2 1
     2    2    3 2
     3    2    4 1
     4    4    5 1
     5    4   40 1
     6    4   41 1
     7    5    6 1
     8    5   42 1
     9    5   43 1
    10    6   39 1
    11    6    7 1
    12    6   44 1
    13    7    8 1
    14    7   45 1
    15    7   46 1
    16    8    9 1
    17    9   38 ar
    18    9   10 ar
    19   10   11 1
    20   10   14 ar
    21   11   12 1
    22   11   13 2
    23   14   15 1
    24   14   36 ar
    25   15   16 1
    26   15   47 1
    27   15   48 1
    28   16   17 1
    29   16   18 1
    30   16   21 1
    31   18   19 1
    32   18   49 1
    33   18   50 1
    34   19   20 2
    35   19   51 1
    36   20   52 1
    37   20   53 1
    38   21   22 1
    39   21   54 1
    40   21   55 1
    41   22   27 ar
    42   22   23 ar
    43   23   24 ar
    44   23   56 1
    45   24   25 ar
    46   24   57 1
    47   25   26 ar
    48   25   58 1
    49   26   27 ar
    50   26   59 1
    51   27   28 1
    52   28   29 2
    53   28   30 am
    54   30   31 1
    55   30   60 1
    56   31   32 1
    57   31   61 1
    58   31   62 1
    59   32   35 1
    60   32   33 1
    61   32   63 1
    62   33   34 1
    63   33   64 1
    64   33   65 1
    65   34   35 1
    66   34   66 1
    67   34   67 1
    68   35   68 1
    69   35   69 1
    70   36   37 ar
    71   36   70 1
    72   37   38 ar
    73   37   71 1
    74   38   39 1
