AVX38708_1, 3
##########                 Name:           AVX38708_0
##########          Protonation:                   76
##########               SMILES:   C[NH+](Cc1ccccc1C(=O)NCc2ccccc2)Cc3ccc4c(c3C(=O)[O-])OCO4
##########            Long Name:   arbamoyl)phenyl]methyl-methyl-ammonio]methyl]-1,3-benzodioxole-4-carboxylate
##########          FlexRecCode: 1
##########               Number:                  352
##########   Ligand Source File: /raid1/people/rgc/Examples/sampl4/screening/ligands/build_1//sampl4-hivint-00000
##########           GlobalRank: 14
##########                 Rank:                    1
##########               Setnum:                   90
##########             Matchnum:                21317
##########                Cloud:                    1
##########        Electrostatic:           -40.679993
##########        Van der Waals:           -17.281359
##########  Ligand Polar Desolv:            16.884293
########## Ligand Apolar Desolv:            -2.242818
##########      Internal Energy:             0.000000
##########      Receptor Energy: 0.0
########## Receptor Desolvation:             0.000000
########## Receptor Hydrophobic:             0.000000
##########         Total Energy: -43.32
##########        Ligand Charge:             0.000000
##########            Arbitrary:    +999.9990
##########     heavy atom count:   32
##########           pose count:    1
##########        Ligand Energy:             0.000000
# num electro vdwattr vdwrepu polsolv apolsol rdesolv rhydroe totalscore fullpol fullapo
#   1   -0.44   -0.20    0.01   -0.16   -0.05    0.00    0.00      -0.85   -1.21   -0.41
#   2   -2.67   -0.32    0.01   -0.61    0.03    0.00    0.00      -3.56   -3.79    0.16
#   3    2.38    0.00    0.00    0.20    0.01    0.00    0.00       2.59    5.10    0.33
#   4    0.06   -0.34    0.01    0.08   -0.06    0.00    0.00      -0.24    0.41   -0.30
#   5   -0.09   -0.19    0.00   -0.06   -0.02    0.00    0.00      -0.36   -0.87   -0.30
#   6   -0.10   -0.14    0.00   -0.06   -0.02    0.00    0.00      -0.32   -1.20   -0.40
#   7   -0.07   -0.06    0.00   -0.03   -0.01    0.00    0.00      -0.16   -1.14   -0.47
#   8   -0.06   -0.03    0.00   -0.02   -0.01    0.00    0.00      -0.12   -1.31   -0.47
#   9   -0.05   -0.05    0.00   -0.02   -0.01    0.00    0.00      -0.13   -0.93   -0.44
#  10   -0.09   -0.12    0.00   -0.06   -0.02    0.00    0.00      -0.28   -1.35   -0.40
#  11    0.31   -0.22    0.01    0.33   -0.05    0.00    0.00       0.38    3.91   -0.63
#  12   -0.82   -0.32    0.01   -0.34    0.04    0.00    0.00      -1.43   -2.48    0.29
#  13   -0.31   -0.19    0.00   -0.40    0.19    0.00    0.00      -0.71   -5.02    2.32
#  14    0.05   -0.26    0.02    0.10   -0.06    0.00    0.00      -0.14    0.77   -0.44
#  15   -0.03   -0.70    0.13   -0.08   -0.07    0.00    0.00      -0.76   -0.44   -0.37
#  16   -0.02   -0.80    0.36   -0.06   -0.08    0.00    0.00      -0.60   -0.36   -0.45
#  17   -0.02   -0.76    0.21   -0.08   -0.10    0.00    0.00      -0.75   -0.38   -0.47
#  18   -0.03   -1.00    0.18   -0.09   -0.12    0.00    0.00      -1.06   -0.36   -0.47
#  19   -0.05   -1.46    0.63   -0.12   -0.12    0.00    0.00      -1.12   -0.47   -0.47
#  20   -0.04   -1.02    0.21   -0.10   -0.10    0.00    0.00      -1.04   -0.44   -0.45
#  21    1.03   -0.67    0.09    0.05   -0.07    0.00    0.00       0.44    0.20   -0.26
#  22   -1.48   -0.65    0.05    0.01   -0.09    0.00    0.00      -2.15    0.06   -0.39
#  23   -1.76   -0.44    0.02   -0.10   -0.06    0.00    0.00      -2.34   -0.59   -0.34
#  24   -0.90   -0.67    0.08   -0.04   -0.10    0.00    0.00      -1.64   -0.19   -0.47
#  25    0.33   -0.79    0.05    0.01   -0.09    0.00    0.00      -0.49    0.03   -0.33
#  26   -3.31   -1.71    0.63    0.66    0.18    0.00    0.00      -3.55    1.88    0.52
#  27    3.26   -1.14    0.32   -0.49    0.01    0.00    0.00       1.96   -1.33    0.02
#  28   -7.70   -1.12    0.18    2.08    0.13    0.00    0.00      -6.44    5.53    0.34
#  29    2.35   -0.83    0.06   -0.08   -0.10    0.00    0.00       1.40   -0.25   -0.32
#  30   -2.91   -0.96    0.11    0.79   -0.13    0.00    0.00      -3.11    2.41   -0.41
#  31   21.93   -2.30    0.89   -4.69   -0.08    0.00    0.00      15.76  -10.59   -0.17
#  32  -32.72   -2.95    2.64    6.39   -0.14    0.00    0.00     -26.77   14.45   -0.32
#  33  -30.93   -5.64    6.15   11.95   -0.30    0.00    0.00     -18.77   22.52   -0.56
#  34    1.18   -0.11    0.01    0.30   -0.04    0.00    0.00       1.34    2.23   -0.28
#  35    1.11   -0.05    0.00    0.10   -0.01    0.00    0.00       1.15    1.73   -0.18
#  36    0.23   -0.03    0.00    0.09   -0.01    0.00    0.00       0.29    3.19   -0.22
#  37    0.34   -0.15    0.01    0.13   -0.03    0.00    0.00       0.29    0.79   -0.20
#  38    0.28   -0.17    0.01    0.40   -0.05    0.00    0.00       0.47    2.22   -0.27
#  39    0.18   -0.04    0.00    0.10   -0.01    0.00    0.00       0.23    2.94   -0.28
#  40    0.10   -0.01    0.00    0.03    0.00    0.00    0.00       0.11    2.16   -0.28
#  41    0.07    0.00    0.00    0.01    0.00    0.00    0.00       0.08    1.87   -0.28
#  42    0.06   -0.01    0.00    0.02    0.00    0.00    0.00       0.07    1.80   -0.22
#  43    0.17    0.00    0.00    0.07    0.01    0.00    0.00       0.25    3.86    0.43
#  44    0.03   -0.04    0.00    0.01   -0.01    0.00    0.00      -0.01    0.32   -0.28
#  45    0.04   -0.13    0.02    0.02   -0.03    0.00    0.00      -0.09    0.13   -0.28
#  46    0.02   -0.11    0.03    0.05   -0.03    0.00    0.00      -0.04    0.51   -0.28
#  47    0.00   -0.10    0.01    0.05   -0.03    0.00    0.00      -0.06    0.52   -0.28
#  48    0.00   -0.26    0.11    0.11   -0.06    0.00    0.00      -0.10    0.55   -0.28
#  49    0.06   -0.40    0.26    0.16   -0.07    0.00    0.00       0.02    0.69   -0.28
#  50    0.05   -0.17    0.02    0.14   -0.04    0.00    0.00       0.00    0.88   -0.28
#  51    3.49   -0.30    0.05   -0.02   -0.06    0.00    0.00       3.17   -0.06   -0.23
#  52    2.13   -0.40    0.14   -0.07   -0.07    0.00    0.00       1.73   -0.24   -0.26
#  53    0.86   -0.07    0.00    0.21   -0.01    0.00    0.00       0.99    3.03   -0.18
#  54    0.86   -0.29    0.18    0.30   -0.06    0.00    0.00       0.99    1.50   -0.28
#  55    1.83   -0.74    0.62   -0.22   -0.10    0.00    0.00       1.39   -0.60   -0.28
#  56    1.15   -0.21    0.02   -0.10   -0.06    0.00    0.00       0.79   -0.49   -0.28

@<TRIPOS>MOLECULE
       AVX38708_0        76
   56    59     0     0     0



@<TRIPOS>ATOM
      1 C1          8.4179   -21.5539   -23.9525 C.3        1          -0.0648
      2 N1          7.6240   -22.3140   -22.9778 N.4        1          -0.3791
      3 H1          7.0766   -23.0108   -23.4603 H          1           0.4148
      4 C2          6.7278   -21.4001   -22.2570 C.3        1           0.0370
      5 C3          5.8053   -20.7236   -23.2380 C.ar       1          -0.0861
      6 C4          6.1764   -19.5327   -23.8280 C.ar       1          -0.0991
      7 C5          5.3305   -18.9105   -24.7286 C.ar       1          -0.0859
      8 C6          4.1080   -19.4769   -25.0442 C.ar       1          -0.1003
      9 C7          3.7252   -20.6673   -24.4619 C.ar       1          -0.0802
     10 C8          4.5762   -21.3031   -23.5561 C.ar       1          -0.1220
     11 C9          4.1749   -22.5821   -22.9326 C.2        1           0.5538
     12 O1          5.0212   -23.3918   -22.6075 O.2        1          -0.5451
     13 N2          2.8706   -22.8503   -22.7244 N.am       1          -0.7073
     14 C10         2.4728   -24.1176   -22.1064 C.3        1           0.1584
     15 C11         1.7245   -23.8402   -20.8280 C.ar       1          -0.1192
     16 C12         0.7534   -24.7213   -20.3905 C.ar       1          -0.0991
     17 C13         0.0671   -24.4668   -19.2178 C.ar       1          -0.1204
     18 C14         0.3517   -23.3307   -18.4831 C.ar       1          -0.1066
     19 C15         1.3238   -22.4507   -18.9198 C.ar       1          -0.1207
     20 C16         2.0130   -22.7074   -20.0902 C.ar       1          -0.0994
     21 C17         8.5232   -22.9734   -22.0216 C.3        1           0.0664
     22 C18         9.0835   -24.2275   -22.6416 C.ar       1          -0.0817
     23 C19         8.2543   -25.0862   -23.3284 C.ar       1          -0.1582
     24 C20         8.7614   -26.2410   -23.9018 C.ar       1          -0.0897
     25 C21        10.1074   -26.5457   -23.7912 C.ar       1           0.0233
     26 O2         10.8374   -27.6012   -24.2576 O.3        1          -0.3099
     27 C22        12.2112   -27.1745   -24.1951 C.3        1           0.2033
     28 O3         12.2193   -26.2031   -23.1324 O.3        1          -0.2691
     29 C23        10.9594   -25.6879   -23.1000 C.ar       1           0.0959
     30 C24        10.4476   -24.5172   -22.5247 C.ar       1          -0.1039
     31 C25        11.3390   -23.5999   -21.7965 C.2        1           0.5195
     32 O4         11.8987   -22.6896   -22.3920 O.co2      1          -0.6840
     33 O5         11.5201   -23.7476   -20.5957 O.co2      1          -0.6463
     34 H2          9.0093   -20.8010   -23.4313 H          1           0.1237
     35 H3          9.0829   -22.2319   -24.4873 H          1           0.1287
     36 H4          7.7505   -21.0645   -24.6619 H          1           0.1125
     37 H5          6.1388   -21.9640   -21.5338 H          1           0.1602
     38 H6          7.3192   -20.6472   -21.7358 H          1           0.1330
     39 H7          7.1289   -19.0851   -23.5856 H          1           0.1426
     40 H8          5.6256   -17.9783   -25.1874 H          1           0.1402
     41 H9          3.4521   -18.9858   -25.7476 H          1           0.1399
     42 H10         2.7709   -21.1085   -24.7090 H          1           0.1345
     43 H11         2.1952   -22.2040   -22.9836 H          1           0.4049
     44 H12         1.8295   -24.6697   -22.7915 H          1           0.0852
     45 H13         3.3614   -24.7091   -21.8862 H          1           0.0858
     46 H14         0.5309   -25.6084   -20.9649 H          1           0.1248
     47 H15        -0.6920   -25.1549   -18.8764 H          1           0.1266
     48 H16        -0.1847   -23.1326   -17.5667 H          1           0.1259
     49 H17         1.5461   -21.5636   -18.3455 H          1           0.1264
     50 H18         2.7748   -22.0213   -20.4298 H          1           0.1244
     51 H19         9.3400   -22.2982   -21.7660 H          1           0.1615
     52 H20         7.9686   -23.2308   -21.1193 H          1           0.1478
     53 H21         7.2027   -24.8582   -23.4203 H          1           0.1200
     54 H22         8.1024   -26.9078   -24.4381 H          1           0.1370
     55 H23        12.8624   -28.0140   -23.9518 H          1           0.1344
     56 H24        12.5128   -26.7149   -25.1364 H          1           0.0855
@<TRIPOS>BOND
     1    1    2 1
     2    1   34 1
     3    1   35 1
     4    1   36 1
     5    2    3 1
     6    2    4 1
     7    2   21 1
     8    4    5 1
     9    4   37 1
    10    4   38 1
    11    5   10 ar
    12    5    6 ar
    13    6    7 ar
    14    6   39 1
    15    7    8 ar
    16    7   40 1
    17    8    9 ar
    18    8   41 1
    19    9   10 ar
    20    9   42 1
    21   10   11 1
    22   11   12 2
    23   11   13 am
    24   13   14 1
    25   13   43 1
    26   14   15 1
    27   14   44 1
    28   14   45 1
    29   15   20 ar
    30   15   16 ar
    31   16   17 ar
    32   16   46 1
    33   17   18 ar
    34   17   47 1
    35   18   19 ar
    36   18   48 1
    37   19   20 ar
    38   19   49 1
    39   20   50 1
    40   21   22 1
    41   21   51 1
    42   21   52 1
    43   22   30 ar
    44   22   23 ar
    45   23   24 ar
    46   23   53 1
    47   24   25 ar
    48   24   54 1
    49   25   29 ar
    50   25   26 1
    51   26   27 1
    52   27   28 1
    53   27   55 1
    54   27   56 1
    55   28   29 1
    56   29   30 ar
    57   30   31 1
    58   31   32 1
    59   31   33 2
