AVX38787_1, 3
##########                 Name:           AVX38787_0
##########          Protonation:                   23
##########               SMILES:   CN(Cc1ccccc1C(=O)NCC2CCCCC2)Cc3ccc4c(c3C(=O)[O-])OC[C@@H](O4)CCC(=O)[O-]
##########            Long Name:   ]methyl]-2-(3-oxido-3-oxo-propyl)-2,3-dihydro-1,4-benzodioxine-5-carboxylate
##########          FlexRecCode: 1
##########               Number:                  490
##########   Ligand Source File: /raid1/people/rgc/Examples/sampl4/screening/ligands/build_1//sampl4-hivint-00000
##########           GlobalRank: 54
##########                 Rank:                    1
##########               Setnum:                   14
##########             Matchnum:                10771
##########                Cloud:                    1
##########        Electrostatic:           -45.442993
##########        Van der Waals:           -17.374825
##########  Ligand Polar Desolv:            26.391703
########## Ligand Apolar Desolv:            -2.383908
##########      Internal Energy:             0.000000
##########      Receptor Energy: 0.0
########## Receptor Desolvation:             0.000000
########## Receptor Hydrophobic:             0.000000
##########         Total Energy: -38.81
##########        Ligand Charge:            -2.000000
##########            Arbitrary:    +999.9990
##########     heavy atom count:   38
##########           pose count:    1
##########        Ligand Energy:             0.000000
# num electro vdwattr vdwrepu polsolv apolsol rdesolv rhydroe totalscore fullpol fullapo
#   1    0.22   -0.79    0.15   -0.16   -0.12    0.00    0.00      -0.71   -0.57   -0.43
#   2   -6.59   -0.57    0.03    2.75    0.40    0.00    0.00      -3.97   13.54    1.96
#   3    0.63   -0.33    0.02   -0.47   -0.06    0.00    0.00      -0.21   -2.39   -0.31
#   4   -0.03   -0.31    0.01    0.14   -0.04    0.00    0.00      -0.23    1.11   -0.32
#   5   -0.19   -0.35    0.02    0.26   -0.06    0.00    0.00      -0.32    1.88   -0.42
#   6   -0.05   -0.19    0.00    0.04   -0.04    0.00    0.00      -0.23    0.58   -0.47
#   7   -0.07   -0.11    0.00    0.03   -0.02    0.00    0.00      -0.17    0.68   -0.47
#   8   -0.08   -0.09    0.00    0.03   -0.02    0.00    0.00      -0.17    0.71   -0.44
#   9   -0.32   -0.16    0.00    0.17   -0.03    0.00    0.00      -0.34    2.59   -0.41
#  10    2.82   -0.16    0.00   -0.63   -0.04    0.00    0.00       2.00  -10.95   -0.65
#  11   -3.96   -0.19    0.00    1.40    0.03    0.00    0.00      -2.72   16.80    0.31
#  12   -2.55   -0.15    0.00    0.72    0.15    0.00    0.00      -1.82   10.95    2.20
#  13    0.39   -0.23    0.03   -0.29   -0.05    0.00    0.00      -0.16   -2.37   -0.38
#  14   -0.18   -0.17    0.01    0.10   -0.02    0.00    0.00      -0.26    0.91   -0.15
#  15   -0.24   -0.35    0.08    0.16   -0.03    0.00    0.00      -0.39    1.09   -0.22
#  16   -0.18   -0.18    0.01    0.10   -0.03    0.00    0.00      -0.28    0.87   -0.25
#  17   -0.16   -0.38    0.07    0.17   -0.04    0.00    0.00      -0.34    1.13   -0.25
#  18   -0.14   -0.21    0.02    0.15   -0.03    0.00    0.00      -0.21    1.28   -0.25
#  19   -0.18   -0.26    0.02    0.28   -0.03    0.00    0.00      -0.18    1.75   -0.22
#  20    2.54   -0.67    0.13   -1.63   -0.08    0.00    0.00       0.30   -5.82   -0.28
#  21   -0.83   -0.63    0.02    0.33   -0.10    0.00    0.00      -1.21    1.29   -0.39
#  22   -1.41   -0.96    0.10    0.60   -0.11    0.00    0.00      -1.79    2.01   -0.38
#  23   -1.13   -1.64    0.46    0.72   -0.15    0.00    0.00      -1.74    2.18   -0.46
#  24    0.29   -1.01    0.11   -0.11   -0.09    0.00    0.00      -0.82   -0.36   -0.30
#  25   -1.66   -1.48    0.28    3.39    0.21    0.00    0.00       0.73    9.92    0.62
#  26    0.19   -0.86    0.24   -0.64   -0.04    0.00    0.00      -1.12   -2.16   -0.12
#  27   -0.30   -0.29    0.01    0.29   -0.03    0.00    0.00      -0.32    1.63   -0.18
#  28   -0.20   -0.37    0.04    0.81   -0.04    0.00    0.00       0.24    4.86   -0.25
#  29    0.33   -0.22    0.01   -1.59   -0.01    0.00    0.00      -1.48  -18.86   -0.16
#  30   -0.60   -0.08    0.00    1.21   -0.02    0.00    0.00       0.52   32.72   -0.41
#  31   -0.36   -0.22    0.01    3.22   -0.04    0.00    0.00       2.60   34.85   -0.43
#  32    0.26   -1.12    0.64   -0.14   -0.04    0.00    0.00      -0.40   -0.46   -0.12
#  33   -7.34   -1.29    1.02    3.55    0.07    0.00    0.00      -3.98   12.77    0.27
#  34    1.78   -0.74    0.08   -0.50   -0.08    0.00    0.00       0.54   -1.93   -0.30
#  35   -3.77   -0.74    0.08    2.38   -0.10    0.00    0.00      -2.15    9.48   -0.41
#  36   20.23   -1.74    1.13   -8.32   -0.06    0.00    0.00      11.24  -23.34   -0.17
#  37  -19.74   -1.50    1.00   10.87   -0.10    0.00    0.00      -9.48   34.66   -0.33
#  38  -35.55   -3.33    3.40   16.72   -0.26    0.00    0.00     -19.02   37.44   -0.59
#  39    0.30   -0.39    0.13   -0.19   -0.08    0.00    0.00      -0.24   -0.68   -0.28
#  40    0.40   -0.11    0.00   -0.11   -0.03    0.00    0.00       0.15   -0.91   -0.22
#  41    0.56   -0.45    0.16   -0.73   -0.07    0.00    0.00      -0.54   -2.38   -0.24
#  42    0.76   -0.13    0.02   -0.17   -0.02    0.00    0.00       0.46   -1.46   -0.20
#  43    0.21   -0.13    0.01   -0.09   -0.04    0.00    0.00      -0.04   -0.68   -0.27
#  44    0.21   -0.09    0.00   -0.19   -0.03    0.00    0.00      -0.10   -1.80   -0.28
#  45    0.05   -0.03    0.00   -0.03   -0.01    0.00    0.00      -0.02   -1.20   -0.28
#  46    0.06   -0.01    0.00   -0.01    0.00    0.00    0.00       0.03   -0.91   -0.28
#  47    0.08   -0.01    0.00   -0.02    0.00    0.00    0.00       0.05   -1.34   -0.22
#  48    0.58    0.00    0.00   -0.10    0.01    0.00    0.00       0.48   -4.62    0.39
#  49    0.55   -0.15    0.04   -0.02   -0.04    0.00    0.00       0.38   -0.15   -0.28
#  50    0.24   -0.06    0.01   -0.04   -0.02    0.00    0.00       0.12   -0.63   -0.28
#  51    0.11   -0.02    0.00   -0.02   -0.01    0.00    0.00       0.06   -1.15   -0.28
#  52    0.18   -0.44    0.50   -0.11   -0.06    0.00    0.00       0.07   -0.50   -0.28
#  53    0.13   -0.05    0.00   -0.05   -0.01    0.00    0.00       0.02   -0.78   -0.24
#  54    0.09   -0.05    0.00   -0.04   -0.02    0.00    0.00      -0.01   -0.65   -0.28
#  55    0.07   -0.02    0.00   -0.01    0.00    0.00    0.00       0.04   -0.60   -0.28
#  56    0.10   -0.43    0.36   -0.12   -0.06    0.00    0.00      -0.15   -0.52   -0.28
#  57    0.06   -0.06    0.00   -0.05   -0.02    0.00    0.00      -0.06   -0.73   -0.28
#  58    0.06   -0.09    0.01   -0.06   -0.03    0.00    0.00      -0.11   -0.71   -0.28
#  59    0.06   -0.02    0.00   -0.01    0.00    0.00    0.00       0.02   -0.78   -0.28
#  60    0.09   -0.04    0.00   -0.02   -0.01    0.00    0.00       0.02   -0.56   -0.28
#  61    0.14   -0.20    0.04   -0.16   -0.06    0.00    0.00      -0.23   -0.75   -0.28
#  62    1.93   -0.42    0.31   -0.05   -0.06    0.00    0.00       1.71   -0.20   -0.22
#  63    1.55   -0.25    0.05   -0.16   -0.06    0.00    0.00       1.13   -0.66   -0.25
#  64    1.15   -0.23    0.04   -1.24   -0.05    0.00    0.00      -0.34   -5.10   -0.22
#  65    0.40   -0.78    0.53   -1.92   -0.11    0.00    0.00      -1.87   -4.94   -0.28
#  66   -0.23   -0.53    0.39   -0.78   -0.08    0.00    0.00      -1.22   -2.66   -0.28
#  67    0.40   -0.06    0.00   -0.08   -0.01    0.00    0.00       0.25   -1.77   -0.28
#  68    0.24   -0.06    0.00   -0.17   -0.01    0.00    0.00       0.00   -3.19   -0.28
#  69    0.00   -0.10    0.01   -0.31   -0.03    0.00    0.00      -0.43   -3.18   -0.28
#  70    0.10   -0.30    0.19   -0.45   -0.05    0.00    0.00      -0.51   -2.65   -0.27
#  71    1.46   -0.69    1.20   -1.60   -0.09    0.00    0.00       0.28   -4.81   -0.28
#  72    0.63   -0.33    0.14   -0.58   -0.07    0.00    0.00      -0.20   -2.49   -0.28

@<TRIPOS>MOLECULE
       AVX38787_0        23
   72    75     0     0     0



@<TRIPOS>ATOM
      1 C1          7.5504   -23.4375   -21.5987 C.3        1           0.0198
      2 N1          8.1019   -24.3576   -22.6022 N.3        1          -0.5248
      3 C2          7.0603   -25.2512   -23.1260 C.3        1           0.0877
      4 C3          5.9715   -24.4313   -23.7689 C.ar       1          -0.0082
      5 C4          4.6467   -24.7183   -23.5123 C.ar       1          -0.1230
      6 C5          3.6461   -23.9666   -24.1016 C.ar       1          -0.0991
      7 C6          3.9661   -22.9226   -24.9518 C.ar       1          -0.1354
      8 C7          5.2868   -22.6248   -25.2164 C.ar       1          -0.0922
      9 C8          6.3014   -23.3761   -24.6207 C.ar       1          -0.1122
     10 C9          7.7190   -23.0589   -24.8953 C.2        1           0.5480
     11 O1          8.5545   -23.9415   -24.8736 O.2        1          -0.4869
     12 N2          8.0849   -21.7912   -25.1700 N.am       1          -0.7332
     13 C10         9.4898   -21.4769   -25.4424 C.3        1           0.1249
     14 C11         9.5696   -20.2861   -26.3997 C.3        1          -0.0971
     15 C12        10.9443   -20.2624   -27.0708 C.3        1          -0.1142
     16 C13        11.0241   -19.0717   -28.0281 C.3        1          -0.1187
     17 C14        10.8163   -17.7734   -27.2457 C.3        1          -0.1200
     18 C15         9.4415   -17.7970   -26.5745 C.3        1          -0.1184
     19 C16         9.3617   -18.9879   -25.6171 C.3        1          -0.1145
     20 C17         9.2261   -25.1256   -22.0507 C.3        1           0.1283
     21 C18        10.0636   -25.6706   -23.1788 C.ar       1          -0.0440
     22 C19         9.7764   -26.9057   -23.7158 C.ar       1          -0.1190
     23 C20        10.5419   -27.4142   -24.7523 C.ar       1          -0.1270
     24 C21        11.6053   -26.6862   -25.2610 C.ar       1           0.0244
     25 O2         12.3500   -27.2022   -26.2770 O.3        1          -0.3053
     26 C22        13.1613   -26.2800   -27.0115 C.3        1           0.0509
     27 C23        12.2749   -25.3885   -27.8836 C.3        1          -0.0805
     28 C24        11.8792   -26.1473   -29.1518 C.3        1          -0.1790
     29 C25        11.0061   -25.2692   -30.0108 C.2        1           0.4921
     30 O3         11.4323   -24.2047   -30.4253 O.co2      1          -0.7017
     31 O4          9.8737   -25.6232   -30.2912 O.co2      1          -0.7118
     32 C26        13.9194   -25.4222   -25.9916 C.3        1           0.0197
     33 O5         12.9446   -24.7115   -25.2217 O.3        1          -0.2622
     34 C27        11.9074   -25.4369   -24.7313 C.ar       1           0.0810
     35 C28        11.1302   -24.9195   -23.6851 C.ar       1          -0.1423
     36 C29        11.4377   -23.5961   -23.1193 C.2        1           0.5260
     37 O6         10.9138   -22.5942   -23.5866 O.co2      1          -0.6949
     38 O7         12.2173   -23.4979   -22.1816 O.co2      1          -0.6703
     39 H1          8.3425   -22.7873   -21.2275 H          1           0.0190
     40 H2          6.7663   -22.8317   -22.0531 H          1           0.0702
     41 H3          7.1329   -24.0105   -20.7708 H          1           0.0556
     42 H4          7.4957   -25.9218   -23.8668 H          1           0.1097
     43 H5          6.6394   -25.8370   -22.3086 H          1           0.0318
     44 H6          4.3901   -25.5321   -22.8499 H          1           0.1255
     45 H7          2.6105   -24.1957   -23.8977 H          1           0.1218
     46 H8          3.1803   -22.3400   -25.4092 H          1           0.1221
     47 H9          5.5353   -21.8097   -25.8800 H          1           0.1202
     48 H10         7.4182   -21.0868   -25.1872 H          1           0.3920
     49 H11         9.9937   -21.2269   -24.5088 H          1           0.0728
     50 H12         9.9740   -22.3413   -25.8965 H          1           0.0668
     51 H13         8.7951   -20.3794   -27.1610 H          1           0.0757
     52 H14        11.7188   -20.1693   -26.3095 H          1           0.0643
     53 H15        11.0923   -21.1874   -27.6283 H          1           0.0598
     54 H16        12.0035   -19.0549   -28.5063 H          1           0.0586
     55 H17        10.2496   -19.1650   -28.7894 H          1           0.0605
     56 H18        11.5907   -17.6802   -26.4843 H          1           0.0608
     57 H19        10.8732   -16.9250   -27.9276 H          1           0.0576
     58 H20         9.2936   -16.8721   -26.0170 H          1           0.0624
     59 H21         8.6671   -17.8903   -27.3357 H          1           0.0615
     60 H22         8.3824   -19.0046   -25.1390 H          1           0.0695
     61 H23        10.1362   -18.8946   -24.8559 H          1           0.0658
     62 H24         9.8380   -24.4758   -21.4250 H          1           0.0684
     63 H25         8.8427   -25.9513   -21.4511 H          1           0.0887
     64 H26         8.9496   -27.4814   -23.3266 H          1           0.1316
     65 H27        10.3087   -28.3842   -25.1661 H          1           0.1183
     66 H28        13.8673   -26.8255   -27.6377 H          1           0.0734
     67 H29        11.3775   -25.1149   -27.3289 H          1           0.0705
     68 H30        12.8229   -24.4866   -28.1560 H          1           0.0801
     69 H31        12.7767   -26.4211   -29.7065 H          1           0.0546
     70 H32        11.3311   -27.0493   -28.8795 H          1           0.0643
     71 H33        14.5129   -26.0617   -25.3382 H          1           0.1126
     72 H34        14.5676   -24.7160   -26.5108 H          1           0.0667
@<TRIPOS>BOND
     1    1    2 1
     2    1   39 1
     3    1   40 1
     4    1   41 1
     5    2    3 1
     6    2   20 1
     7    3    4 1
     8    3   42 1
     9    3   43 1
    10    4    9 ar
    11    4    5 ar
    12    5    6 ar
    13    5   44 1
    14    6    7 ar
    15    6   45 1
    16    7    8 ar
    17    7   46 1
    18    8    9 ar
    19    8   47 1
    20    9   10 1
    21   10   11 2
    22   10   12 am
    23   12   13 1
    24   12   48 1
    25   13   14 1
    26   13   49 1
    27   13   50 1
    28   14   19 1
    29   14   15 1
    30   14   51 1
    31   15   16 1
    32   15   52 1
    33   15   53 1
    34   16   17 1
    35   16   54 1
    36   16   55 1
    37   17   18 1
    38   17   56 1
    39   17   57 1
    40   18   19 1
    41   18   58 1
    42   18   59 1
    43   19   60 1
    44   19   61 1
    45   20   21 1
    46   20   62 1
    47   20   63 1
    48   21   35 ar
    49   21   22 ar
    50   22   23 ar
    51   22   64 1
    52   23   24 ar
    53   23   65 1
    54   24   34 ar
    55   24   25 1
    56   25   26 1
    57   26   27 1
    58   26   32 1
    59   26   66 1
    60   27   28 1
    61   27   67 1
    62   27   68 1
    63   28   29 1
    64   28   69 1
    65   28   70 1
    66   29   30 1
    67   29   31 2
    68   32   33 1
    69   32   71 1
    70   32   72 1
    71   33   34 1
    72   34   35 ar
    73   35   36 1
    74   36   37 1
    75   36   38 2
