AVX38781_1, 3
##########                 Name:           AVX38781_0
##########          Protonation:                   61
##########               SMILES:   CC[NH+](Cc1ccccc1C(=O)NCC2CCCCC2)Cc3ccc4c(c3C(=O)[O-])OC[C@H](O4)CCC(=O)[O-]
##########            Long Name:   ]methyl]-2-(3-oxido-3-oxo-propyl)-2,3-dihydro-1,4-benzodioxine-5-carboxylate
##########          FlexRecCode: 1
##########               Number:                  587
##########   Ligand Source File: /raid1/people/rgc/Examples/sampl4/screening/ligands/build_1//sampl4-hivint-00000
##########           GlobalRank: 95
##########                 Rank:                    1
##########               Setnum:                   81
##########             Matchnum:                23787
##########                Cloud:                    1
##########        Electrostatic:           -42.767578
##########        Van der Waals:           -11.080847
##########  Ligand Polar Desolv:            22.032982
########## Ligand Apolar Desolv:            -2.352458
##########      Internal Energy:             0.000000
##########      Receptor Energy: 0.0
########## Receptor Desolvation:             0.000000
########## Receptor Hydrophobic:             0.000000
##########         Total Energy: -34.17
##########        Ligand Charge:            -1.000000
##########            Arbitrary:    +999.9990
##########     heavy atom count:   40
##########           pose count:    1
##########        Ligand Energy:             0.000000
# num electro vdwattr vdwrepu polsolv apolsol rdesolv rhydroe totalscore fullpol fullapo
#   1  -26.75   -2.29    3.89    8.91   -0.12    0.00    0.00     -16.38   29.41   -0.41
#   2   14.74   -1.47    0.39   -6.00   -0.06    0.00    0.00       7.62  -16.39   -0.16
#   3  -26.72   -2.85    2.46   13.72   -0.19    0.00    0.00     -13.58   31.16   -0.43
#   4   -2.86   -0.87    0.13    1.35   -0.09    0.00    0.00      -2.34    3.78   -0.25
#   5   -1.32   -0.54    0.04    0.44   -0.05    0.00    0.00      -1.43    1.57   -0.18
#   6    1.23   -0.67    0.05   -0.75   -0.04    0.00    0.00      -0.19   -2.07   -0.12
#   7    0.31   -0.63    0.06   -0.19   -0.04    0.00    0.00      -0.49   -0.56   -0.12
#   8   -3.58   -0.43    0.01    1.76    0.05    0.00    0.00      -2.19    8.74    0.27
#   9    1.62   -0.53    0.02   -0.14   -0.06    0.00    0.00       0.91   -0.69   -0.30
#  10   -1.02   -0.37    0.01    0.42   -0.04    0.00    0.00      -1.00    2.82   -0.30
#  11    2.79   -0.23    0.00   -1.09   -0.01    0.00    0.00       1.46  -13.16   -0.15
#  12   -2.01   -0.14    0.00    1.75   -0.04    0.00    0.00      -0.43   26.20   -0.59
#  13   -2.60   -0.30    0.01    2.05   -0.04    0.00    0.00      -0.88   14.55   -0.25
#  14   -1.27   -0.52    0.03    0.10   -0.04    0.00    0.00      -1.71    0.49   -0.23
#  15    0.19   -0.21    0.01   -0.02   -0.04    0.00    0.00      -0.08   -0.16   -0.28
#  16   -0.49   -0.13    0.00    0.01    0.00    0.00    0.00      -0.60    0.13    0.07
#  17    0.74    0.00    0.00   -0.07    0.01    0.00    0.00       0.68   -2.86    0.29
#  18    0.05   -0.23    0.02    0.02   -0.05    0.00    0.00      -0.19    0.14   -0.37
#  19   -0.27   -0.18    0.01    0.05   -0.03    0.00    0.00      -0.42    0.61   -0.35
#  20   -0.29   -0.21    0.02    0.07   -0.03    0.00    0.00      -0.44    0.77   -0.34
#  21    0.02   -0.05    0.00    0.00   -0.01    0.00    0.00      -0.03    0.08   -0.28
#  22   -0.07   -0.05    0.00   -0.01   -0.01    0.00    0.00      -0.13   -0.22   -0.31
#  23   -0.09   -0.08    0.00   -0.02   -0.01    0.00    0.00      -0.20   -0.67   -0.39
#  24   -0.06   -0.08    0.00   -0.02   -0.01    0.00    0.00      -0.17   -0.54   -0.47
#  25   -0.05   -0.06    0.00   -0.01   -0.01    0.00    0.00      -0.13   -0.34   -0.47
#  26   -0.05   -0.05    0.00    0.00   -0.01    0.00    0.00      -0.11    0.05   -0.44
#  27   -0.07   -0.04    0.00    0.01   -0.01    0.00    0.00      -0.11    0.44   -0.40
#  28    0.35   -0.04    0.00   -0.09   -0.01    0.00    0.00       0.22   -4.65   -0.63
#  29   -0.29   -0.02    0.00    0.09    0.00    0.00    0.00      -0.21    7.15    0.22
#  30   -0.49   -0.06    0.00    0.17    0.06    0.00    0.00      -0.32    6.75    2.20
#  31    0.08   -0.03    0.00   -0.05   -0.01    0.00    0.00      -0.02   -2.38   -0.38
#  32   -0.05   -0.08    0.00    0.04   -0.01    0.00    0.00      -0.10    0.85   -0.15
#  33   -0.13   -0.17    0.01    0.08   -0.02    0.00    0.00      -0.23    0.84   -0.22
#  34   -0.12   -0.51    0.09    0.15   -0.05    0.00    0.00      -0.45    0.70   -0.25
#  35   -0.04   -0.31    0.03    0.19   -0.04    0.00    0.00      -0.18    1.15   -0.25
#  36   -0.04   -0.12    0.00    0.08   -0.02    0.00    0.00      -0.09    1.25   -0.25
#  37   -0.05   -0.06    0.00    0.05   -0.01    0.00    0.00      -0.06    1.76   -0.22
#  38   -2.51   -1.53    0.82    0.08   -0.12    0.00    0.00      -3.27    0.25   -0.39
#  39   -4.29   -2.05    1.68    0.59   -0.17    0.00    0.00      -4.24    1.56   -0.46
#  40    1.85   -0.95    0.11    0.05   -0.10    0.00    0.00       0.96    0.15   -0.30
#  41  -10.56   -1.22    0.27    2.92    0.23    0.00    0.00      -8.37    7.73    0.62
#  42    0.49   -0.26    0.03   -0.60   -0.07    0.00    0.00      -0.41   -2.47   -0.28
#  43    0.91   -0.55    0.30   -0.72   -0.09    0.00    0.00      -0.14   -2.21   -0.27
#  44    1.13   -0.08    0.00   -0.08   -0.02    0.00    0.00       0.95   -1.25   -0.28
#  45    0.82   -0.22    0.02   -0.48   -0.06    0.00    0.00       0.09   -2.20   -0.28
#  46    1.76   -0.30    0.04   -0.63   -0.10    0.00    0.00       0.76   -1.81   -0.28
#  47    0.85   -0.20    0.01   -0.36   -0.07    0.00    0.00       0.24   -1.49   -0.28
#  48    2.51   -0.38    0.17   -0.92   -0.09    0.00    0.00       1.29   -3.03   -0.28
#  49    0.15   -0.04    0.00    0.04   -0.01    0.00    0.00       0.13    1.08   -0.27
#  50    0.70   -0.10    0.01   -0.07   -0.02    0.00    0.00       0.52   -0.65   -0.15
#  51    0.16   -0.07    0.00    0.07   -0.02    0.00    0.00       0.16    0.93   -0.20
#  52    0.33   -0.17    0.05    0.35   -0.04    0.00    0.00       0.51    2.18   -0.28
#  53    0.17   -0.02    0.00   -0.01    0.00    0.00    0.00       0.14   -0.56   -0.22
#  54    0.25   -0.08    0.01   -0.01   -0.02    0.00    0.00       0.14   -0.13   -0.27
#  55    0.18   -0.02    0.00   -0.01   -0.01    0.00    0.00       0.14   -0.50   -0.28
#  56    0.16   -0.02    0.00    0.00    0.00    0.00    0.00       0.14    0.02   -0.14
#  57    0.11   -0.01    0.00    0.03    0.00    0.00    0.00       0.12    2.25   -0.27
#  58    0.13   -0.02    0.00    0.06   -0.01    0.00    0.00       0.16    2.47   -0.28
#  59    0.08   -0.02    0.00    0.03   -0.01    0.00    0.00       0.09    1.53   -0.28
#  60    0.06   -0.01    0.00    0.01    0.00    0.00    0.00       0.06    0.74   -0.28
#  61    0.07   -0.01    0.00    0.00    0.00    0.00    0.00       0.05    0.01   -0.22
#  62    0.46    0.00    0.00   -0.04    0.01    0.00    0.00       0.42   -2.26    0.38
#  63    0.05   -0.01    0.00    0.00    0.00    0.00    0.00       0.04    0.18   -0.28
#  64    0.06   -0.01    0.00    0.00    0.00    0.00    0.00       0.04   -0.34   -0.28
#  65    0.04   -0.04    0.00   -0.03   -0.01    0.00    0.00      -0.04   -0.96   -0.28
#  66    0.09   -0.03    0.00   -0.01   -0.01    0.00    0.00       0.04   -0.32   -0.28
#  67    0.09   -0.05    0.00   -0.03   -0.01    0.00    0.00       0.00   -0.56   -0.24
#  68    0.10   -0.26    0.05   -0.11   -0.07    0.00    0.00      -0.28   -0.46   -0.28
#  69    0.05   -0.31    0.26   -0.08   -0.05    0.00    0.00      -0.13   -0.46   -0.28
#  70    0.02   -0.07    0.01   -0.03   -0.02    0.00    0.00      -0.09   -0.37   -0.28
#  71    0.01   -0.15    0.02   -0.10   -0.04    0.00    0.00      -0.26   -0.66   -0.28
#  72    0.02   -0.02    0.00   -0.01    0.00    0.00    0.00      -0.02   -0.61   -0.28
#  73    0.02   -0.05    0.00   -0.04   -0.01    0.00    0.00      -0.09   -0.81   -0.28
#  74    0.03   -0.01    0.00   -0.01    0.00    0.00    0.00       0.01   -0.53   -0.28
#  75    0.03   -0.01    0.00   -0.01    0.00    0.00    0.00       0.01   -0.50   -0.28
#  76    2.77   -0.52    0.49    0.00   -0.09    0.00    0.00       2.65    0.01   -0.28
#  77    6.54   -1.08    2.82   -0.84   -0.13    0.00    0.00       7.31   -1.82   -0.28

@<TRIPOS>MOLECULE
       AVX38781_0        61
   77    80     0     0     0



@<TRIPOS>ATOM
      1 O1         13.1060   -24.6185   -24.7022 O.co2      1          -0.6990
      2 C1         13.2621   -25.7208   -24.2051 C.2        1           0.4902
      3 O2         14.1768   -25.9124   -23.4223 O.co2      1          -0.7073
      4 C2         12.3204   -26.8446   -24.5536 C.3        1          -0.1781
      5 C3         10.8949   -26.4578   -24.1549 C.3        1          -0.0836
      6 C4         10.8403   -26.1952   -22.6486 C.3        1           0.0537
      7 C5          9.3868   -26.2492   -22.1631 C.3        1           0.0184
      8 O3          8.6503   -25.2743   -22.9083 O.3        1          -0.2607
      9 C6          9.1985   -24.0360   -23.0018 C.ar       1           0.0923
     10 C7          8.3969   -22.9472   -23.3737 C.ar       1          -0.0916
     11 C8          6.9668   -23.1446   -23.6601 C.2        1           0.5285
     12 O4          6.6014   -23.4063   -24.7978 O.co2      1          -0.6375
     13 O5          6.1437   -23.0472   -22.7603 O.co2      1          -0.7102
     14 C9          8.9643   -21.6717   -23.4705 C.ar       1          -0.1134
     15 C10         8.1110   -20.4951   -23.8687 C.3        1           0.0607
     16 N1          8.1325   -20.3469   -25.3300 N.4        1          -0.3535
     17 H1          8.0925   -21.2583   -25.7612 H          1           0.4372
     18 C11         9.3704   -19.6674   -25.7351 C.3        1           0.0285
     19 C12         9.6395   -19.9404   -27.1925 C.2        1          -0.1681
     20 C13        10.3547   -20.9805   -27.5429 C.2        1          -0.1476
     21 C14         6.9744   -19.5511   -25.7586 C.3        1           0.0231
     22 C15         5.7046   -20.2482   -25.3430 C.ar       1          -0.0838
     23 C16         5.1372   -19.9773   -24.1148 C.ar       1          -0.1053
     24 C17         3.9717   -20.6162   -23.7317 C.ar       1          -0.0945
     25 C18         3.3670   -21.5306   -24.5763 C.ar       1          -0.1037
     26 C19         3.9236   -21.8102   -25.8070 C.ar       1          -0.0836
     27 C20         5.0967   -21.1650   -26.2019 C.ar       1          -0.1082
     28 C21         5.6958   -21.4557   -27.5218 C.2        1           0.5386
     29 O6          5.3753   -20.7983   -28.4929 O.2        1          -0.5111
     30 N2          6.5970   -22.4497   -27.6487 N.am       1          -0.7102
     31 C22         7.1905   -22.7378   -28.9568 C.3        1           0.1211
     32 C23         6.8621   -24.1767   -29.3600 C.3        1          -0.0949
     33 C24         7.8131   -25.1371   -28.6429 C.3        1          -0.1153
     34 C25         7.4847   -26.5760   -29.0461 C.3        1          -0.1170
     35 C26         7.6482   -26.7315   -30.5594 C.3        1          -0.1228
     36 C27         6.6971   -25.7711   -31.2765 C.3        1          -0.1167
     37 C28         7.0256   -24.3324   -30.8733 C.3        1          -0.1150
     38 C29        10.3029   -21.4923   -23.2011 C.ar       1          -0.1141
     39 C30        11.0938   -22.5684   -22.8335 C.ar       1          -0.1215
     40 C31        10.5476   -23.8376   -22.7317 C.ar       1           0.0630
     41 O7         11.3380   -24.8836   -22.3655 O.3        1          -0.2991
     42 H2         12.3596   -27.0317   -25.6268 H          1           0.0538
     43 H3         12.6160   -27.7460   -24.0168 H          1           0.0629
     44 H4         10.5993   -25.5564   -24.6917 H          1           0.0735
     45 H5         10.2140   -27.2707   -24.4069 H          1           0.0844
     46 H6         11.4372   -26.9394   -22.1213 H          1           0.0764
     47 H7          8.9734   -27.2418   -22.3420 H          1           0.0730
     48 H8          9.3426   -26.0133   -21.0999 H          1           0.1193
     49 H9          7.0864   -20.6601   -23.5353 H          1           0.1022
     50 H10         8.5024   -19.5893   -23.4058 H          1           0.1586
     51 H11         9.2629   -18.5938   -25.5803 H          1           0.1117
     52 H12        10.2016   -20.0394   -25.1362 H          1           0.1196
     53 H13         9.2425   -19.2787   -27.9481 H          1           0.1406
     54 H14        10.7517   -21.6423   -26.7873 H          1           0.0937
     55 H15        10.5476   -21.1761   -28.5874 H          1           0.1120
     56 H16         7.0176   -18.5667   -25.2928 H          1           0.1637
     57 H17         6.9904   -19.4409   -26.8428 H          1           0.1182
     58 H18         5.6045   -19.2649   -23.4508 H          1           0.1372
     59 H19         3.5318   -20.4009   -22.7691 H          1           0.1357
     60 H20         2.4575   -22.0266   -24.2709 H          1           0.1362
     61 H21         3.4507   -22.5240   -26.4653 H          1           0.1330
     62 H22         6.8528   -22.9742   -26.8739 H          1           0.3966
     63 H23         6.7846   -22.0507   -29.6994 H          1           0.0834
     64 H24         8.2720   -22.6142   -28.9004 H          1           0.0718
     65 H25         5.8341   -24.4067   -29.0801 H          1           0.0748
     66 H26         8.8411   -24.9069   -28.9229 H          1           0.0672
     67 H27         7.6965   -25.0263   -27.5648 H          1           0.0552
     68 H28         8.1621   -27.2601   -28.5352 H          1           0.0602
     69 H29         6.4566   -26.8061   -28.7662 H          1           0.0592
     70 H30         8.6761   -26.5013   -30.8394 H          1           0.0647
     71 H31         7.4141   -27.7566   -30.8467 H          1           0.0600
     72 H32         6.8136   -25.8820   -32.3545 H          1           0.0655
     73 H33         5.6692   -26.0012   -30.9965 H          1           0.0597
     74 H34         6.3480   -23.6481   -31.3841 H          1           0.0709
     75 H35         8.0536   -24.1022   -31.1532 H          1           0.0685
     76 H36        10.7385   -20.5070   -23.2772 H          1           0.1201
     77 H37        12.1426   -22.4172   -22.6247 H          1           0.1288
@<TRIPOS>BOND
     1    1    2 1
     2    2    3 2
     3    2    4 1
     4    4    5 1
     5    4   42 1
     6    4   43 1
     7    5    6 1
     8    5   44 1
     9    5   45 1
    10    6   41 1
    11    6    7 1
    12    6   46 1
    13    7    8 1
    14    7   47 1
    15    7   48 1
    16    8    9 1
    17    9   40 ar
    18    9   10 ar
    19   10   11 1
    20   10   14 ar
    21   11   12 1
    22   11   13 2
    23   14   15 1
    24   14   38 ar
    25   15   16 1
    26   15   49 1
    27   15   50 1
    28   16   17 1
    29   16   18 1
    30   16   21 1
    31   18   19 1
    32   18   51 1
    33   18   52 1
    34   19   20 2
    35   19   53 1
    36   20   54 1
    37   20   55 1
    38   21   22 1
    39   21   56 1
    40   21   57 1
    41   22   27 ar
    42   22   23 ar
    43   23   24 ar
    44   23   58 1
    45   24   25 ar
    46   24   59 1
    47   25   26 ar
    48   25   60 1
    49   26   27 ar
    50   26   61 1
    51   27   28 1
    52   28   29 2
    53   28   30 am
    54   30   31 1
    55   30   62 1
    56   31   32 1
    57   31   63 1
    58   31   64 1
    59   32   37 1
    60   32   33 1
    61   32   65 1
    62   33   34 1
    63   33   66 1
    64   33   67 1
    65   34   35 1
    66   34   68 1
    67   34   69 1
    68   35   36 1
    69   35   70 1
    70   35   71 1
    71   36   37 1
    72   36   72 1
    73   36   73 1
    74   37   74 1
    75   37   75 1
    76   38   39 ar
    77   38   76 1
    78   39   40 ar
    79   39   77 1
    80   40   41 1
