AVX38785_1, 3
##########                 Name:           AVX38785_0
##########          Protonation:                   23
##########               SMILES:   CN(Cc1ccccc1C(=O)NCc2ccccc2)Cc3ccc4c(c3C(=O)[O-])OC[C@@H](O4)CCC(=O)[O-]
##########            Long Name:   ]methyl]-2-(3-oxido-3-oxo-propyl)-2,3-dihydro-1,4-benzodioxine-5-carboxylate
##########          FlexRecCode: 1
##########               Number:                  383
##########   Ligand Source File: /raid1/people/rgc/Examples/sampl4/screening/ligands/build_1//sampl4-hivint-00000
##########           GlobalRank: 81
##########                 Rank:                    1
##########               Setnum:                    1
##########             Matchnum:                11165
##########                Cloud:                    1
##########        Electrostatic:           -46.570179
##########        Van der Waals:           -11.655046
##########  Ligand Polar Desolv:            24.404724
########## Ligand Apolar Desolv:            -2.268937
##########      Internal Energy:             0.000000
##########      Receptor Energy: 0.0
########## Receptor Desolvation:             0.000000
########## Receptor Hydrophobic:             0.000000
##########         Total Energy: -36.09
##########        Ligand Charge:            -2.000000
##########            Arbitrary:    +999.9990
##########     heavy atom count:   38
##########           pose count:    1
##########        Ligand Energy:             0.000000
# num electro vdwattr vdwrepu polsolv apolsol rdesolv rhydroe totalscore fullpol fullapo
#   1    0.34   -0.94    0.29   -0.20   -0.15    0.00    0.00      -0.66   -0.56   -0.43
#   2   -7.34   -0.61    0.03    3.18    0.46    0.00    0.00      -4.29   13.51    1.96
#   3    0.67   -0.59    0.21   -0.52   -0.07    0.00    0.00      -0.31   -2.36   -0.31
#   4   -0.04   -0.59    0.08    0.21   -0.06    0.00    0.00      -0.40    1.06   -0.32
#   5   -0.39   -0.88    0.27    0.43   -0.10    0.00    0.00      -0.67    1.86   -0.42
#   6   -0.14   -0.62    0.07    0.12   -0.09    0.00    0.00      -0.66    0.59   -0.47
#   7   -0.12   -0.48    0.05    0.11   -0.07    0.00    0.00      -0.50    0.76   -0.47
#   8   -0.21   -0.36    0.02    0.11   -0.06    0.00    0.00      -0.51    0.80   -0.44
#   9   -0.61   -0.35    0.01    0.38   -0.06    0.00    0.00      -0.63    2.62   -0.41
#  10    4.85   -0.31    0.01   -1.30   -0.08    0.00    0.00       3.17  -11.24   -0.65
#  11   -4.90   -0.22    0.00    1.65    0.03    0.00    0.00      -3.44   16.58    0.31
#  12   -6.85   -0.49    0.02    2.21    0.44    0.00    0.00      -4.67   11.69    2.32
#  13    2.36   -0.51    0.06   -0.82   -0.11    0.00    0.00       0.98   -3.24   -0.44
#  14   -0.74   -0.64    0.06    0.40   -0.08    0.00    0.00      -0.99    1.85   -0.37
#  15   -0.19   -0.30    0.02    0.19   -0.06    0.00    0.00      -0.34    1.44   -0.45
#  16   -0.16   -0.23    0.01    0.12   -0.05    0.00    0.00      -0.31    1.16   -0.47
#  17   -0.13   -0.38    0.03    0.15   -0.07    0.00    0.00      -0.39    1.04   -0.47
#  18   -0.34   -0.80    0.10    0.36   -0.11    0.00    0.00      -0.78    1.57   -0.47
#  19   -0.68   -1.36    0.44    0.54   -0.12    0.00    0.00      -1.19    1.96   -0.45
#  20    2.02   -0.52    0.03   -1.69   -0.08    0.00    0.00      -0.24   -5.78   -0.28
#  21   -0.62   -0.55    0.02    0.28   -0.09    0.00    0.00      -0.95    1.28   -0.39
#  22   -0.86   -0.74    0.05    0.49   -0.09    0.00    0.00      -1.15    2.00   -0.38
#  23   -0.65   -0.53    0.03    0.41   -0.09    0.00    0.00      -0.83    2.19   -0.46
#  24    0.15   -0.32    0.01   -0.05   -0.04    0.00    0.00      -0.25   -0.36   -0.30
#  25   -0.85   -0.17    0.00    0.85    0.05    0.00    0.00      -0.11    9.93    0.62
#  26    0.11   -0.13    0.01   -0.18   -0.01    0.00    0.00      -0.21   -2.16   -0.12
#  27   -0.16   -0.11    0.01    0.13   -0.01    0.00    0.00      -0.15    1.63   -0.18
#  28   -0.21   -0.03    0.00    0.12   -0.01    0.00    0.00      -0.13    4.86   -0.24
#  29    0.51   -0.03    0.00   -0.33    0.00    0.00    0.00       0.15  -18.86   -0.16
#  30   -0.77   -0.04    0.00    0.58   -0.01    0.00    0.00      -0.24   32.74   -0.41
#  31   -0.60   -0.02    0.00    0.49   -0.01    0.00    0.00      -0.13   34.87   -0.43
#  32    0.06   -0.51    0.21   -0.08   -0.02    0.00    0.00      -0.34   -0.46   -0.12
#  33   -3.22   -1.91    3.33    2.65    0.06    0.00    0.00       0.92   12.76    0.27
#  34    1.08   -0.60    0.14   -0.33   -0.05    0.00    0.00       0.24   -1.91   -0.30
#  35   -3.03   -0.64    0.10    1.95   -0.08    0.00    0.00      -1.71    9.45   -0.41
#  36   21.06   -1.86    1.62   -7.47   -0.05    0.00    0.00      13.30  -23.29   -0.17
#  37  -25.74   -1.44    0.58   12.47   -0.12    0.00    0.00     -14.25   34.51   -0.33
#  38  -35.99   -3.80    6.42   14.43   -0.23    0.00    0.00     -19.16   37.39   -0.59
#  39    0.49   -0.60    0.89   -0.21   -0.09    0.00    0.00       0.47   -0.69   -0.28
#  40    0.98   -0.29    0.07   -0.25   -0.06    0.00    0.00       0.46   -0.90   -0.22
#  41    0.77   -0.30    0.07   -0.68   -0.07    0.00    0.00      -0.21   -2.37   -0.24
#  42    0.67   -0.16    0.04   -0.21   -0.03    0.00    0.00       0.31   -1.50   -0.20
#  43    0.21   -0.45    0.70   -0.16   -0.06    0.00    0.00       0.24   -0.72   -0.27
#  44    0.43   -0.41    0.54   -0.39   -0.06    0.00    0.00       0.12   -1.83   -0.28
#  45    0.11   -0.12    0.01   -0.15   -0.03    0.00    0.00      -0.18   -1.24   -0.28
#  46    0.05   -0.07    0.00   -0.07   -0.02    0.00    0.00      -0.11   -1.02   -0.28
#  47    0.18   -0.05    0.00   -0.07   -0.01    0.00    0.00       0.05   -1.50   -0.22
#  48    2.11   -0.01    0.00   -0.62    0.05    0.00    0.00       1.53   -5.39    0.43
#  49    1.98   -0.36    0.16   -0.15   -0.08    0.00    0.00       1.55   -0.50   -0.28
#  50    1.17   -0.12    0.02   -0.15   -0.04    0.00    0.00       0.88   -1.05   -0.28
#  51    0.22   -0.04    0.00   -0.06   -0.01    0.00    0.00       0.12   -1.62   -0.28
#  52    0.14   -0.02    0.00   -0.02   -0.01    0.00    0.00       0.09   -1.28   -0.28
#  53    0.11   -0.05    0.00   -0.07   -0.02    0.00    0.00      -0.03   -1.23   -0.28
#  54    0.32   -0.19    0.03   -0.29   -0.05    0.00    0.00      -0.19   -1.55   -0.28
#  55    1.25   -0.93    1.32   -0.51   -0.09    0.00    0.00       1.04   -1.67   -0.28
#  56    1.57   -0.18    0.01   -0.04   -0.04    0.00    0.00       1.31   -0.22   -0.22
#  57    0.97   -0.27    0.04   -0.19   -0.06    0.00    0.00       0.49   -0.73   -0.25
#  58    0.59   -0.27    0.04   -1.37   -0.06    0.00    0.00      -1.08   -5.10   -0.22
#  59    0.35   -0.14    0.02   -0.61   -0.03    0.00    0.00      -0.41   -4.92   -0.28
#  60    0.11   -0.02    0.00   -0.06   -0.01    0.00    0.00       0.03   -2.65   -0.28
#  61    0.17   -0.03    0.00   -0.06   -0.01    0.00    0.00       0.07   -1.77   -0.28
#  62    0.17   -0.05    0.00   -0.18   -0.02    0.00    0.00      -0.08   -3.19   -0.28
#  63    0.05   -0.01    0.00   -0.04    0.00    0.00    0.00       0.00   -3.18   -0.28
#  64    0.07   -0.01    0.00   -0.03    0.00    0.00    0.00       0.03   -2.66   -0.27
#  65    0.34   -0.12    0.01   -0.64   -0.04    0.00    0.00      -0.45   -4.81   -0.28
#  66    0.20   -0.20    0.08   -0.35   -0.04    0.00    0.00      -0.30   -2.48   -0.28

@<TRIPOS>MOLECULE
       AVX38785_0        23
   66    69     0     0     0



@<TRIPOS>ATOM
      1 C1          8.7276   -25.9025   -21.4558 C.3        1           0.0198
      2 N1          8.8948   -25.7817   -22.9101 N.3        1          -0.5251
      3 C2          7.7155   -26.2947   -23.6202 C.3        1           0.0875
      4 C3          6.4985   -25.5079   -23.2067 C.ar       1          -0.0076
      5 C4          5.3238   -26.1626   -22.8983 C.ar       1          -0.1232
      6 C5          4.2058   -25.4418   -22.5186 C.ar       1          -0.0984
      7 C6          4.2573   -24.0608   -22.4454 C.ar       1          -0.1354
      8 C7          5.4256   -23.3941   -22.7506 C.ar       1          -0.0914
      9 C8          6.5590   -24.1158   -23.1294 C.ar       1          -0.1122
     10 C9          7.8161   -23.4080   -23.4524 C.2        1           0.5493
     11 O1          8.5887   -23.8808   -24.2631 O.2        1          -0.4859
     12 N2          8.1055   -22.2385   -22.8482 N.am       1          -0.7302
     13 C10         9.3513   -21.5371   -23.1685 C.3        1           0.1609
     14 C11         9.0313   -20.1730   -23.7230 C.ar       1          -0.1022
     15 C12         8.8515   -20.0047   -25.0833 C.ar       1          -0.1025
     16 C13         8.5581   -18.7532   -25.5921 C.ar       1          -0.1256
     17 C14         8.4440   -17.6704   -24.7407 C.ar       1          -0.1170
     18 C15         8.6229   -17.8388   -23.3804 C.ar       1          -0.1216
     19 C16         8.9121   -19.0910   -22.8710 C.ar       1          -0.0979
     20 C17        10.1167   -26.4631   -23.3580 C.3        1           0.1282
     21 C18        10.5231   -25.9301   -24.7077 C.ar       1          -0.0441
     22 C19        10.0428   -26.5211   -25.8551 C.ar       1          -0.1193
     23 C20        10.4124   -26.0377   -27.0995 C.ar       1          -0.1271
     24 C21        11.2692   -24.9542   -27.2047 C.ar       1           0.0245
     25 O2         11.6256   -24.4942   -28.4354 O.3        1          -0.3053
     26 C22        12.1756   -23.1743   -28.4935 C.3        1           0.0508
     27 C23        11.0765   -22.1417   -28.2356 C.3        1          -0.0805
     28 C24        10.2667   -21.9282   -29.5160 C.3        1          -0.1790
     29 C25        11.1770   -21.4307   -30.6091 C.2        1           0.4921
     30 O3         11.7845   -20.3833   -30.4669 O.co2      1          -0.7017
     31 O4         11.3060   -22.0757   -31.6357 O.co2      1          -0.7118
     32 C26        13.2488   -23.0757   -27.4029 C.3        1           0.0197
     33 O5         12.5997   -23.2809   -26.1440 O.3        1          -0.2622
     34 C27        11.7616   -24.3450   -26.0561 C.ar       1           0.0811
     35 C28        11.3845   -24.8308   -24.7959 C.ar       1          -0.1423
     36 C29        11.8959   -24.1912   -23.5730 C.2        1           0.5260
     37 O6         11.2746   -23.2717   -23.0579 O.co2      1          -0.6949
     38 O7         12.9421   -24.5792   -23.0713 O.co2      1          -0.6702
     39 H1          9.6147   -25.5155   -20.9546 H          1           0.0191
     40 H2          7.8543   -25.3307   -21.1417 H          1           0.0703
     41 H3          8.5894   -26.9511   -21.1918 H          1           0.0557
     42 H4          7.8659   -26.1932   -24.6950 H          1           0.1098
     43 H5          7.5703   -27.3459   -23.3711 H          1           0.0322
     44 H6          5.2769   -27.2402   -22.9538 H          1           0.1258
     45 H7          3.2886   -25.9590   -22.2785 H          1           0.1220
     46 H8          3.3808   -23.5039   -22.1490 H          1           0.1223
     47 H9          5.4645   -22.3162   -22.6930 H          1           0.1207
     48 H10         7.4891   -21.8613   -22.2011 H          1           0.3941
     49 H11         9.9508   -21.4303   -22.2644 H          1           0.0820
     50 H12         9.9099   -22.1089   -23.9095 H          1           0.0763
     51 H13         8.9407   -20.8508   -25.7486 H          1           0.1231
     52 H14         8.4183   -18.6217   -26.6550 H          1           0.1208
     53 H15         8.2155   -16.6925   -25.1383 H          1           0.1199
     54 H16         8.5341   -16.9926   -22.7152 H          1           0.1236
     55 H17         9.0483   -19.2232   -21.8078 H          1           0.1278
     56 H18        10.9170   -26.2830   -22.6402 H          1           0.0685
     57 H19         9.9291   -27.5343   -23.4318 H          1           0.0889
     58 H20         9.3743   -27.3664   -25.7843 H          1           0.1317
     59 H21        10.0305   -26.5088   -27.9933 H          1           0.1183
     60 H22        12.6224   -23.0023   -29.4727 H          1           0.0734
     61 H23        10.4181   -22.5016   -27.4451 H          1           0.0705
     62 H24        11.5288   -21.1981   -27.9303 H          1           0.0801
     63 H25         9.8143   -22.8718   -29.8213 H          1           0.0546
     64 H26         9.4837   -21.1925   -29.3324 H          1           0.0643
     65 H27        14.0064   -23.8439   -27.5583 H          1           0.1126
     66 H28        13.7097   -22.0881   -27.4252 H          1           0.0667
@<TRIPOS>BOND
     1    1    2 1
     2    1   39 1
     3    1   40 1
     4    1   41 1
     5    2    3 1
     6    2   20 1
     7    3    4 1
     8    3   42 1
     9    3   43 1
    10    4    9 ar
    11    4    5 ar
    12    5    6 ar
    13    5   44 1
    14    6    7 ar
    15    6   45 1
    16    7    8 ar
    17    7   46 1
    18    8    9 ar
    19    8   47 1
    20    9   10 1
    21   10   11 2
    22   10   12 am
    23   12   13 1
    24   12   48 1
    25   13   14 1
    26   13   49 1
    27   13   50 1
    28   14   19 ar
    29   14   15 ar
    30   15   16 ar
    31   15   51 1
    32   16   17 ar
    33   16   52 1
    34   17   18 ar
    35   17   53 1
    36   18   19 ar
    37   18   54 1
    38   19   55 1
    39   20   21 1
    40   20   56 1
    41   20   57 1
    42   21   35 ar
    43   21   22 ar
    44   22   23 ar
    45   22   58 1
    46   23   24 ar
    47   23   59 1
    48   24   34 ar
    49   24   25 1
    50   25   26 1
    51   26   27 1
    52   26   32 1
    53   26   60 1
    54   27   28 1
    55   27   61 1
    56   27   62 1
    57   28   29 1
    58   28   63 1
    59   28   64 1
    60   29   30 1
    61   29   31 2
    62   32   33 1
    63   32   65 1
    64   32   66 1
    65   33   34 1
    66   34   35 ar
    67   35   36 1
    68   36   37 1
    69   36   38 2
