AVX38742_3, 3
##########                 Name:           AVX38742_0
##########          Protonation:                  100
##########               SMILES:   c1ccc\2c(c1)C/C(=N/O)/C2=C\c3ccc4c(c3C(=O)[O-])OC[C@H](O4)CCC(=O)[O-]
##########            Long Name:   ]methyl]-2-(3-oxido-3-oxo-propyl)-2,3-dihydro-1,4-benzodioxine-5-carboxylate
##########          FlexRecCode: 1
##########               Number:                  475
##########   Ligand Source File: /raid1/people/rgc/Examples/sampl4/screening/ligands/build_1//sampl4-hivint-00000
##########           GlobalRank: 2
##########                 Rank:                    1
##########               Setnum:                    7
##########             Matchnum:                 2281
##########                Cloud:                    1
##########        Electrostatic:           -52.584045
##########        Van der Waals:           -26.388783
##########  Ligand Polar Desolv:            32.166203
########## Ligand Apolar Desolv:            -3.937124
##########      Internal Energy:             0.000000
##########      Receptor Energy: 0.0
########## Receptor Desolvation:             0.000000
########## Receptor Hydrophobic:             0.000000
##########         Total Energy: -50.74
##########        Ligand Charge:            -2.000000
##########            Arbitrary:    +999.9990
##########     heavy atom count:   30
##########           pose count:    1
##########        Ligand Energy:             0.000000
# num electro vdwattr vdwrepu polsolv apolsol rdesolv rhydroe totalscore fullpol fullapo
#   1   -4.14   -0.29    0.01    1.81    0.05    0.00    0.00      -2.57   12.92    0.35
#   2   -4.95   -0.37    0.01    1.22    0.16    0.00    0.00      -3.93    8.30    1.06
#   3    3.39   -0.61    0.02   -0.82   -0.18    0.00    0.00       1.81   -3.44   -0.76
#   4   -0.29   -0.55    0.04    0.01   -0.09    0.00    0.00      -0.89    0.02   -0.29
#   5   -2.52   -1.65    0.35    0.54   -0.18    0.00    0.00      -3.46    1.30   -0.44
#   6   -1.84   -2.44    0.70    0.45   -0.24    0.00    0.00      -3.37    0.88   -0.47
#   7   -2.65   -2.93    1.18    0.40   -0.30    0.00    0.00      -4.30    0.63   -0.47
#   8   -2.69   -3.84    2.07    1.03   -0.29    0.00    0.00      -3.71    1.69   -0.47
#   9   -2.92   -3.79    2.17    1.55   -0.26    0.00    0.00      -3.24    2.81   -0.47
#  10   -0.37   -2.04    0.65    1.38   -0.19    0.00    0.00      -0.57    3.06   -0.43
#  11   -4.75   -1.11    0.11    1.08   -0.15    0.00    0.00      -4.82    2.90   -0.39
#  12    1.76   -1.98    1.18    0.98   -0.14    0.00    0.00       1.80    2.53   -0.36
#  13   -0.45   -1.98    1.97   -0.42   -0.07    0.00    0.00      -0.95   -1.30   -0.22
#  14   -1.31   -1.30    0.36    0.67   -0.09    0.00    0.00      -1.67    2.27   -0.32
#  15   -0.94   -1.03    0.15    0.47   -0.12    0.00    0.00      -1.48    1.77   -0.46
#  16    0.28   -1.00    0.12   -0.15   -0.08    0.00    0.00      -0.83   -0.54   -0.30
#  17   -0.51   -0.55    0.03    2.25    0.15    0.00    0.00       1.37    9.58    0.62
#  18    0.10   -0.77    0.16   -0.58   -0.03    0.00    0.00      -1.12   -2.22   -0.12
#  19   -0.10   -0.29    0.02    0.27   -0.03    0.00    0.00      -0.13    1.69   -0.18
#  20   -0.17   -0.09    0.00    0.24   -0.01    0.00    0.00      -0.03    4.71   -0.24
#  21    0.33   -0.06    0.00   -0.47    0.00    0.00    0.00      -0.20  -18.65   -0.16
#  22   -0.46   -0.05    0.00    0.79   -0.01    0.00    0.00       0.27   32.76   -0.41
#  23   -0.37   -0.03    0.00    0.60   -0.01    0.00    0.00       0.19   34.90   -0.43
#  24    0.10   -1.02    0.37   -0.12   -0.03    0.00    0.00      -0.70   -0.44   -0.12
#  25   -4.67   -2.76    3.34    4.42    0.10    0.00    0.00       0.43   12.26    0.27
#  26    1.25   -1.62    0.42   -0.76   -0.10    0.00    0.00      -0.80   -2.27   -0.30
#  27   -2.62   -1.90    0.83    2.84   -0.13    0.00    0.00      -0.98    7.48   -0.34
#  28   21.47   -2.33    0.70  -10.35   -0.08    0.00    0.00       9.41  -22.70   -0.17
#  29  -34.11   -4.37    2.28   19.19   -0.18    0.00    0.00     -17.19   34.35   -0.33
#  30  -30.16   -2.43    1.96   15.06   -0.24    0.00    0.00     -15.81   36.85   -0.59
#  31    3.01    0.00    0.00   -0.49    0.06    0.00    0.00       2.57  -11.03    1.25
#  32    1.09   -0.19    0.02   -0.39   -0.05    0.00    0.00       0.47   -2.10   -0.28
#  33    2.29   -0.16    0.02   -0.37   -0.05    0.00    0.00       1.74   -2.21   -0.28
#  34    1.18   -0.71    0.59   -0.67   -0.12    0.00    0.00       0.27   -1.59   -0.28
#  35    1.63   -0.53    0.08   -0.97   -0.19    0.00    0.00       0.02   -1.47   -0.28
#  36    2.47   -0.93    0.69   -1.23   -0.17    0.00    0.00       0.84   -2.07   -0.28
#  37    2.97   -0.98    0.70   -1.20   -0.17    0.00    0.00       1.33   -2.02   -0.28
#  38    3.83   -0.69    0.61   -1.51   -0.09    0.00    0.00       2.15   -3.59   -0.21
#  39    1.12   -0.20    0.02   -0.92   -0.06    0.00    0.00      -0.04   -4.16   -0.27
#  40    0.39   -0.18    0.03   -0.72   -0.05    0.00    0.00      -0.52   -4.46   -0.28
#  41    0.18   -0.62    0.44   -0.93   -0.09    0.00    0.00      -1.03   -2.75   -0.28
#  42    0.08   -0.08    0.00   -0.27   -0.02    0.00    0.00      -0.28   -3.04   -0.28
#  43    0.09   -0.09    0.01   -0.15   -0.03    0.00    0.00      -0.17   -1.62   -0.28
#  44    0.07   -0.02    0.00   -0.06   -0.01    0.00    0.00      -0.02   -2.64   -0.27
#  45    0.05   -0.02    0.00   -0.07   -0.01    0.00    0.00      -0.05   -3.18   -0.28
#  46    0.30   -0.09    0.00   -0.20   -0.02    0.00    0.00      -0.01   -2.28   -0.28
#  47    0.99   -0.59    0.44   -1.29   -0.08    0.00    0.00      -0.52   -4.54   -0.28

@<TRIPOS>MOLECULE
       AVX38742_0       100
   47    50     0     0     0



@<TRIPOS>ATOM
      1 O1          8.5129   -24.7554   -23.6674 O.3        1          -0.3599
      2 N1          9.7476   -24.9014   -24.3452 N.2        1          -0.3418
      3 C1         10.7081   -25.5821   -23.8027 C.2        1           0.1682
      4 C2         11.9294   -26.1385   -24.4962 C.3        1          -0.0151
      5 C3         12.7399   -26.8471   -23.4385 C.ar       1          -0.1066
      6 C4         13.9390   -27.5284   -23.5175 C.ar       1          -0.0995
      7 C5         14.4892   -28.1023   -22.3861 C.ar       1          -0.1374
      8 C6         13.8410   -27.9975   -21.1679 C.ar       1          -0.1155
      9 C7         12.6441   -27.3204   -21.0764 C.ar       1          -0.1101
     10 C8         12.0811   -26.7366   -22.2166 C.ar       1          -0.0136
     11 C9         10.8309   -25.9627   -22.3866 C.2        1          -0.1897
     12 C10         9.9429   -25.6575   -21.4002 C.2        1           0.0708
     13 C11         9.0915   -24.4715   -21.5222 C.ar       1          -0.0202
     14 C12         7.7008   -24.6009   -21.5212 C.ar       1          -0.1027
     15 C13         6.9007   -23.4839   -21.6377 C.ar       1          -0.1247
     16 C14         7.4615   -22.2181   -21.7569 C.ar       1           0.0396
     17 O2          6.6417   -21.1381   -21.8781 O.3        1          -0.3025
     18 C15         7.2237   -19.8559   -21.6205 C.3        1           0.0509
     19 C16         6.2924   -18.7545   -22.1311 C.3        1          -0.0814
     20 C17         5.6858   -19.1797   -23.4698 C.3        1          -0.1793
     21 C18         4.7685   -18.0948   -23.9726 C.2        1           0.4917
     22 O3          5.2065   -16.9778   -24.1892 O.co2      1          -0.7015
     23 O4          3.5883   -18.3342   -24.1630 O.co2      1          -0.7110
     24 C19         8.5672   -19.7809   -22.3584 C.3        1           0.0189
     25 O5          9.4069   -20.8313   -21.8673 O.3        1          -0.2609
     26 C20         8.8443   -22.0621   -21.7572 C.ar       1           0.0768
     27 C21         9.6724   -23.1858   -21.6360 C.ar       1          -0.0992
     28 C22        11.1323   -23.0314   -21.6323 C.2        1           0.5256
     29 O6         11.7277   -22.8675   -20.5755 O.co2      1          -0.6903
     30 O7         11.7540   -23.0664   -22.6859 O.co2      1          -0.6618
     31 H1          7.8589   -24.2317   -24.1502 H          1           0.3816
     32 H2         11.6298   -26.8434   -25.2716 H          1           0.0982
     33 H3         12.5127   -25.3279   -24.9328 H          1           0.0957
     34 H4         14.4483   -27.6134   -24.4661 H          1           0.1178
     35 H5         15.4270   -28.6338   -22.4533 H          1           0.1182
     36 H6         14.2738   -28.4479   -20.2869 H          1           0.1197
     37 H7         12.1405   -27.2407   -20.1244 H          1           0.1234
     38 H8          9.8663   -26.2898   -20.5280 H          1           0.1592
     39 H9          7.2508   -25.5785   -21.4294 H          1           0.1138
     40 H10         5.8262   -23.5940   -21.6365 H          1           0.1229
     41 H11         7.3847   -19.7337   -20.5493 H          1           0.0761
     42 H12         5.4947   -18.5886   -21.4070 H          1           0.0815
     43 H13         6.8588   -17.8329   -22.2651 H          1           0.0712
     44 H14         6.4835   -19.3455   -24.1938 H          1           0.0643
     45 H15         5.1193   -20.1012   -23.3357 H          1           0.0551
     46 H16         8.4064   -19.9088   -23.4289 H          1           0.0684
     47 H17         9.0372   -18.8157   -22.1693 H          1           0.1148
@<TRIPOS>BOND
     1    1    2 1
     2    1   31 1
     3    2    3 2
     4    3   11 1
     5    3    4 1
     6    4    5 1
     7    4   32 1
     8    4   33 1
     9    5   10 ar
    10    5    6 ar
    11    6    7 ar
    12    6   34 1
    13    7    8 ar
    14    7   35 1
    15    8    9 ar
    16    8   36 1
    17    9   10 ar
    18    9   37 1
    19   10   11 1
    20   11   12 2
    21   12   13 1
    22   12   38 1
    23   13   27 ar
    24   13   14 ar
    25   14   15 ar
    26   14   39 1
    27   15   16 ar
    28   15   40 1
    29   16   26 ar
    30   16   17 1
    31   17   18 1
    32   18   19 1
    33   18   24 1
    34   18   41 1
    35   19   20 1
    36   19   42 1
    37   19   43 1
    38   20   21 1
    39   20   44 1
    40   20   45 1
    41   21   22 1
    42   21   23 2
    43   24   25 1
    44   24   46 1
    45   24   47 1
    46   25   26 1
    47   26   27 ar
    48   27   28 1
    49   28   29 1
    50   28   30 2
