AVX38789_1, 3
##########                 Name:           AVX38789_0
##########          Protonation:                   77
##########               SMILES:   C[NH+](Cc1ccccc1C(=O)NCc2ccco2)Cc3ccc4c(c3C(=O)[O-])OC[C@@H](O4)CCC(=O)[O-]
##########            Long Name:   ]methyl]-2-(3-oxido-3-oxo-propyl)-2,3-dihydro-1,4-benzodioxine-5-carboxylate
##########          FlexRecCode: 1
##########               Number:                  598
##########   Ligand Source File: /raid1/people/rgc/Examples/sampl4/screening/ligands/build_1//sampl4-hivint-00000
##########           GlobalRank: 88
##########                 Rank:                    1
##########               Setnum:                    8
##########             Matchnum:                 1794
##########                Cloud:                    1
##########        Electrostatic:           -36.158363
##########        Van der Waals:           -21.833218
##########  Ligand Polar Desolv:            25.215143
########## Ligand Apolar Desolv:            -2.804586
##########      Internal Energy:             0.000000
##########      Receptor Energy: 0.0
########## Receptor Desolvation:             0.000000
########## Receptor Hydrophobic:             0.000000
##########         Total Energy: -35.58
##########        Ligand Charge:            -1.000000
##########            Arbitrary:    +999.9990
##########     heavy atom count:   37
##########           pose count:    1
##########        Ligand Energy:             0.000000
# num electro vdwattr vdwrepu polsolv apolsol rdesolv rhydroe totalscore fullpol fullapo
#   1   -0.05   -0.04    0.00   -0.02   -0.01    0.00    0.00      -0.12   -0.60   -0.41
#   2   -0.62   -0.07    0.00   -0.06    0.01    0.00    0.00      -0.74   -1.54    0.16
#   3    1.10    0.00    0.00    0.05    0.01    0.00    0.00       1.16    2.13    0.32
#   4    0.08   -0.11    0.00    0.01   -0.02    0.00    0.00      -0.03    0.19   -0.30
#   5   -0.17   -0.35    0.01   -0.06   -0.04    0.00    0.00      -0.61   -0.49   -0.30
#   6   -0.14   -0.38    0.02   -0.11   -0.06    0.00    0.00      -0.67   -0.77   -0.40
#   7   -0.14   -0.93    0.14   -0.16   -0.11    0.00    0.00      -1.20   -0.67   -0.47
#   8   -0.23   -2.68    1.17   -0.26   -0.17    0.00    0.00      -2.17   -0.72   -0.47
#   9   -0.50   -2.55    1.24   -0.17   -0.16    0.00    0.00      -2.14   -0.48   -0.44
#  10   -0.93   -0.75    0.06   -0.14   -0.10    0.00    0.00      -1.86   -0.60   -0.40
#  11    7.95   -0.58    0.03    0.14   -0.13    0.00    0.00       7.41    0.65   -0.63
#  12   -7.92   -0.35    0.01    0.19    0.05    0.00    0.00      -8.01    1.12    0.29
#  13  -11.70   -0.95    0.16   -0.20    0.59    0.00    0.00     -12.09   -0.78    2.32
#  14    3.53   -0.48    0.04   -0.11   -0.12    0.00    0.00       2.86   -0.40   -0.47
#  15   -0.62   -0.98    0.10    0.06   -0.11    0.00    0.00      -1.55    0.18   -0.31
#  16   -1.55   -1.69    0.45    0.22   -0.21    0.00    0.00      -2.77    0.55   -0.51
#  17   -1.18   -2.10    0.91    0.27   -0.24    0.00    0.00      -2.33    0.59   -0.51
#  18   -0.16   -1.58    0.43    0.03   -0.12    0.00    0.00      -1.39    0.06   -0.27
#  19   -1.57   -0.97    0.10    0.30    0.09    0.00    0.00      -2.05    0.81    0.25
#  20    0.07   -0.04    0.00   -0.02   -0.01    0.00    0.00       0.01   -0.55   -0.26
#  21   -0.23   -0.11    0.00    0.01   -0.02    0.00    0.00      -0.33    0.33   -0.39
#  22   -0.36   -0.09    0.00    0.01   -0.01    0.00    0.00      -0.45    0.17   -0.34
#  23   -0.31   -0.15    0.00    0.03   -0.02    0.00    0.00      -0.46    0.56   -0.46
#  24    0.22   -0.32    0.01    0.02   -0.04    0.00    0.00      -0.10    0.16   -0.30
#  25   -1.24   -0.58    0.06    1.31    0.13    0.00    0.00      -0.32    6.27    0.62
#  26    0.23   -1.16    0.30   -0.55   -0.04    0.00    0.00      -1.22   -1.66   -0.12
#  27   -0.88   -0.71    0.09    0.41   -0.05    0.00    0.00      -1.14    1.39   -0.18
#  28   -2.08   -0.97    0.16    1.28   -0.09    0.00    0.00      -1.70    3.56   -0.24
#  29   12.15   -1.46    0.24   -6.13   -0.06    0.00    0.00       4.74  -15.56   -0.16
#  30  -17.01   -1.85    0.38   13.78   -0.20    0.00    0.00      -4.91   28.44   -0.41
#  31  -29.02   -2.03    1.22   11.10   -0.16    0.00    0.00     -18.89   30.35   -0.43
#  32    0.04   -1.88    1.01   -0.16   -0.04    0.00    0.00      -1.03   -0.42   -0.12
#  33   -1.23   -1.00    0.26    2.32    0.07    0.00    0.00       0.42    8.67    0.27
#  34    0.46   -0.42    0.03   -0.11   -0.05    0.00    0.00      -0.10   -0.73   -0.30
#  35   -0.36   -0.24    0.01    0.41   -0.04    0.00    0.00      -0.21    4.23   -0.41
#  36    1.03   -0.33    0.03   -1.67   -0.02    0.00    0.00      -0.96  -14.03   -0.17
#  37   -3.11   -0.23    0.00    2.04   -0.04    0.00    0.00      -1.33   18.65   -0.33
#  38   -0.47   -0.51    0.11    4.05   -0.09    0.00    0.00       3.09   27.32   -0.59
#  39    0.10   -0.01    0.00    0.01    0.00    0.00    0.00       0.10    0.72   -0.18
#  40    0.07   -0.01    0.00    0.03    0.00    0.00    0.00       0.08    1.96   -0.22
#  41    0.10   -0.02    0.00    0.03   -0.01    0.00    0.00       0.10    1.29   -0.28
#  42    0.82   -0.04    0.00    0.01   -0.01    0.00    0.00       0.79    0.21   -0.20
#  43    0.17   -0.02    0.00    0.03   -0.01    0.00    0.00       0.17    1.28   -0.27
#  44    0.16   -0.03    0.00    0.05   -0.01    0.00    0.00       0.17    1.97   -0.28
#  45    0.17   -0.14    0.01    0.22   -0.04    0.00    0.00       0.22    1.48   -0.28
#  46    0.32   -1.36    2.48    0.54   -0.13    0.00    0.00       1.86    1.20   -0.28
#  47    1.99   -1.53    3.16    0.41   -0.09    0.00    0.00       3.93    0.97   -0.22
#  48    6.13   -0.03    0.00    0.34    0.11    0.00    0.00       6.55    1.33    0.43
#  49    1.60   -0.08    0.00   -0.01   -0.02    0.00    0.00       1.49   -0.20   -0.28
#  50    2.36   -0.20    0.02   -0.05   -0.06    0.00    0.00       2.07   -0.25   -0.28
#  51    1.36   -0.49    0.23   -0.09   -0.10    0.00    0.00       0.91   -0.26   -0.28
#  52    0.29   -0.47    0.13   -0.06   -0.13    0.00    0.00      -0.24   -0.14   -0.28
#  53    1.14   -0.28    0.03    0.18   -0.09    0.00    0.00       0.98    0.54   -0.28
#  54    0.10   -0.01    0.00   -0.01    0.00    0.00    0.00       0.08   -0.89   -0.23
#  55    0.14   -0.01    0.00   -0.01    0.00    0.00    0.00       0.11   -0.84   -0.26
#  56    0.14   -0.01    0.00    0.01    0.00    0.00    0.00       0.14    0.54   -0.18
#  57    0.30   -0.02    0.00   -0.03   -0.01    0.00    0.00       0.24   -1.27   -0.28
#  58    0.25   -1.01    0.98   -0.67   -0.11    0.00    0.00      -0.55   -1.75   -0.28
#  59    1.02   -0.09    0.00   -0.10   -0.02    0.00    0.00       0.82   -1.29   -0.28
#  60    0.93   -0.32    0.08   -0.50   -0.07    0.00    0.00       0.12   -2.00   -0.28
#  61    0.32   -0.71    0.41   -0.89   -0.11    0.00    0.00      -0.97   -2.32   -0.28
#  62    0.57   -0.19    0.02   -0.47   -0.06    0.00    0.00      -0.13   -2.27   -0.27
#  63    0.25   -0.77    0.44   -1.12   -0.11    0.00    0.00      -1.30   -2.84   -0.28
#  64   -0.08   -1.24    2.07   -0.74   -0.13    0.00    0.00      -0.11   -1.64   -0.28

@<TRIPOS>MOLECULE
       AVX38789_0        77
   64    67     0     0     0



@<TRIPOS>ATOM
      1 C1          5.3532   -21.1189   -25.0885 C.3        1          -0.0637
      2 N1          6.5959   -21.8828   -25.2620 N.4        1          -0.3785
      3 H1          6.5041   -22.7809   -24.8113 H          1           0.4148
      4 C2          7.7130   -21.1440   -24.6585 C.3        1           0.0363
      5 C3          7.4474   -20.9440   -23.1886 C.ar       1          -0.0825
      6 C4          6.7683   -19.8239   -22.7549 C.ar       1          -0.0991
      7 C5          6.5236   -19.6388   -21.4060 C.ar       1          -0.0860
      8 C6          6.9575   -20.5742   -20.4831 C.ar       1          -0.1021
      9 C7          7.6370   -21.6985   -20.9034 C.ar       1          -0.0800
     10 C8          7.8825   -21.8941   -22.2636 C.ar       1          -0.1215
     11 C9          8.6052   -23.0998   -22.7219 C.2        1           0.5563
     12 O1          9.2898   -23.0533   -23.7252 O.2        1          -0.5388
     13 N2          8.5052   -24.2503   -22.0270 N.am       1          -0.7113
     14 C10         9.2213   -25.4449   -22.4809 C.3        1           0.2006
     15 C11         8.4522   -26.6759   -22.0760 C.2        1          -0.0506
     16 C12         8.8163   -27.9473   -22.3216 C.2        1          -0.1740
     17 C13         7.8116   -28.7750   -21.7699 C.2        1          -0.2174
     18 C14         6.8937   -27.9599   -21.2200 C.2        1          -0.0234
     19 O2          7.2898   -26.6897   -21.4033 O.3        1          -0.1717
     20 C15         6.8548   -22.0779   -26.6947 C.3        1           0.0710
     21 C16         7.8047   -23.2328   -26.8809 C.ar       1          -0.1013
     22 C17         8.8658   -23.1188   -27.7513 C.ar       1          -0.1663
     23 C18         9.7430   -24.1760   -27.9289 C.ar       1          -0.1057
     24 C19         9.5635   -25.3605   -27.2328 C.ar       1           0.0512
     25 O3         10.4323   -26.3911   -27.4220 O.3        1          -0.2969
     26 C20        10.4406   -27.4161   -26.4233 C.3        1           0.0495
     27 C21        11.0804   -26.8850   -25.1390 C.3        1          -0.0830
     28 C22        12.6039   -26.9194   -25.2763 C.3        1          -0.1800
     29 C23        13.2343   -26.3964   -24.0114 C.2        1           0.4905
     30 O4         13.5031   -27.1628   -23.1022 O.co2      1          -0.6991
     31 O5         13.4756   -25.2067   -23.8974 O.co2      1          -0.7072
     32 C24         8.9824   -27.8074   -26.1551 C.3        1           0.0169
     33 O6          8.3119   -26.6447   -25.6584 O.3        1          -0.2553
     34 C25         8.4984   -25.4911   -26.3490 C.ar       1           0.1023
     35 C26         7.6126   -24.4197   -26.1653 C.ar       1          -0.1170
     36 C27         6.4839   -24.5449   -25.2289 C.2        1           0.5227
     37 O7          6.6231   -24.2234   -24.0569 O.co2      1          -0.6965
     38 O8          5.4068   -24.9706   -25.6227 O.co2      1          -0.6417
     39 H2          5.4520   -20.1486   -25.5751 H          1           0.1321
     40 H3          4.5242   -21.6671   -25.5360 H          1           0.1092
     41 H4          5.1611   -20.9741   -24.0252 H          1           0.1215
     42 H5          8.6351   -21.7110   -24.7872 H          1           0.1588
     43 H6          7.8121   -20.1738   -25.1451 H          1           0.1319
     44 H7          6.4275   -19.0899   -23.4701 H          1           0.1427
     45 H8          5.9921   -18.7601   -21.0717 H          1           0.1394
     46 H9          6.7639   -20.4234   -19.4313 H          1           0.1389
     47 H10         7.9750   -22.4279   -20.1822 H          1           0.1339
     48 H11         7.9588   -24.2873   -21.2263 H          1           0.4062
     49 H12         9.3201   -25.4188   -23.5662 H          1           0.1096
     50 H13        10.2118   -25.4693   -22.0266 H          1           0.0948
     51 H14         9.7051   -28.2733   -22.8413 H          1           0.1536
     52 H15         7.7860   -29.8546   -21.7869 H          1           0.1532
     53 H16         5.9929   -28.2738   -20.7135 H          1           0.2069
     54 H17         5.9171   -22.2924   -27.2074 H          1           0.1568
     55 H18         7.2974   -21.1726   -27.1105 H          1           0.1423
     56 H19         9.0146   -22.1998   -28.2988 H          1           0.1094
     57 H20        10.5716   -24.0765   -28.6143 H          1           0.1344
     58 H21        10.9979   -28.2803   -26.7844 H          1           0.0819
     59 H22        10.7542   -25.8593   -24.9677 H          1           0.0740
     60 H23        10.7775   -27.5081   -24.2975 H          1           0.0867
     61 H24        12.9302   -27.9452   -25.4477 H          1           0.0560
     62 H25        12.9070   -26.2964   -26.1179 H          1           0.0629
     63 H26         8.5119   -28.1390   -27.0806 H          1           0.1245
     64 H27         8.9435   -28.6034   -25.4113 H          1           0.0763
@<TRIPOS>BOND
     1    1    2 1
     2    1   39 1
     3    1   40 1
     4    1   41 1
     5    2    3 1
     6    2    4 1
     7    2   20 1
     8    4    5 1
     9    4   42 1
    10    4   43 1
    11    5   10 ar
    12    5    6 ar
    13    6    7 ar
    14    6   44 1
    15    7    8 ar
    16    7   45 1
    17    8    9 ar
    18    8   46 1
    19    9   10 ar
    20    9   47 1
    21   10   11 1
    22   11   12 2
    23   11   13 am
    24   13   14 1
    25   13   48 1
    26   14   15 1
    27   14   49 1
    28   14   50 1
    29   15   19 1
    30   15   16 2
    31   16   17 1
    32   16   51 1
    33   17   18 2
    34   17   52 1
    35   18   19 1
    36   18   53 1
    37   20   21 1
    38   20   54 1
    39   20   55 1
    40   21   35 ar
    41   21   22 ar
    42   22   23 ar
    43   22   56 1
    44   23   24 ar
    45   23   57 1
    46   24   34 ar
    47   24   25 1
    48   25   26 1
    49   26   27 1
    50   26   32 1
    51   26   58 1
    52   27   28 1
    53   27   59 1
    54   27   60 1
    55   28   29 1
    56   28   61 1
    57   28   62 1
    58   29   30 1
    59   29   31 2
    60   32   33 1
    61   32   63 1
    62   32   64 1
    63   33   34 1
    64   34   35 ar
    65   35   36 1
    66   36   37 1
    67   36   38 2
