AVX40811_0, 3
##########                 Name:           AVX40811_0
##########          Protonation:                  100
##########               SMILES:   CC(C)C[C@H](Cc1ccc2c(c1C(=O)[O-])OCO2)CNC(=O)c3cccnc3
##########            Long Name:   l-2-[(pyridine-3-carbonylamino)methyl]pentyl]-1,3-benzodioxole-4-carboxylate
##########          FlexRecCode: 1
##########               Number:                  492
##########   Ligand Source File: /raid1/people/rgc/Examples/sampl4/screening/ligands/build_1//sampl4-hivint-00000
##########           GlobalRank: 58
##########                 Rank:                    1
##########               Setnum:                   11
##########             Matchnum:                14230
##########                Cloud:                    1
##########        Electrostatic:           -42.963036
##########        Van der Waals:           -20.329464
##########  Ligand Polar Desolv:            26.810877
########## Ligand Apolar Desolv:            -1.784568
##########      Internal Energy:             0.000000
##########      Receptor Energy: 0.0
########## Receptor Desolvation:             0.000000
########## Receptor Hydrophobic:             0.000000
##########         Total Energy: -38.27
##########        Ligand Charge:            -1.000000
##########            Arbitrary:    +999.9990
##########     heavy atom count:   28
##########           pose count:    1
##########        Ligand Energy:             0.000000
# num electro vdwattr vdwrepu polsolv apolsol rdesolv rhydroe totalscore fullpol fullapo
#   1   -0.11   -0.07    0.00    0.03   -0.01    0.00    0.00      -0.15    0.85   -0.18
#   2   -0.11   -0.07    0.00    0.05   -0.01    0.00    0.00      -0.14    1.31   -0.18
#   3   -0.11   -0.05    0.00    0.07   -0.01    0.00    0.00      -0.10    2.41   -0.17
#   4   -0.15   -0.20    0.00    0.12   -0.02    0.00    0.00      -0.25    0.93   -0.18
#   5   -0.75   -0.23    0.01    0.30   -0.02    0.00    0.00      -0.69    2.08   -0.12
#   6    0.89   -0.16    0.00   -0.28   -0.04    0.00    0.00       0.42   -2.73   -0.38
#   7   -8.13   -0.30    0.01    1.46    0.26    0.00    0.00      -6.69   11.90    2.13
#   8    4.47   -0.23    0.00   -0.87   -0.06    0.00    0.00       3.31   -9.89   -0.65
#   9   -2.16   -0.17    0.00    1.17    0.03    0.00    0.00      -1.12   13.45    0.40
#  10   -1.73   -0.36    0.01    0.44   -0.06    0.00    0.00      -1.69    3.05   -0.41
#  11   -0.11   -0.83    0.08    0.12   -0.12    0.00    0.00      -0.85    0.48   -0.45
#  12   -0.79   -2.00    0.57    0.31   -0.17    0.00    0.00      -2.07    0.90   -0.48
#  13    0.77   -1.87    0.58   -0.27   -0.33    0.00    0.00      -1.13   -0.81   -0.98
#  14   -6.39   -0.77    0.04    1.52    0.58    0.00    0.00      -5.01    5.32    2.04
#  15    2.07   -0.48    0.03   -0.27   -0.17    0.00    0.00       1.17   -1.51   -0.93
#  16   -0.83   -0.80    0.14    0.37   -0.05    0.00    0.00      -1.17    1.30   -0.18
#  17   -0.96   -1.33    0.53    0.29   -0.07    0.00    0.00      -1.54    1.01   -0.25
#  18   -1.45   -0.93    0.13    0.19   -0.10    0.00    0.00      -2.16    0.66   -0.35
#  19   -1.49   -1.02    0.11    0.25   -0.16    0.00    0.00      -2.30    0.73   -0.47
#  20    0.27   -1.30    0.18   -0.12   -0.13    0.00    0.00      -1.10   -0.30   -0.33
#  21   -4.72   -2.67    2.40    2.32    0.25    0.00    0.00      -2.42    4.88    0.52
#  22    4.66   -2.08    1.30   -1.62    0.01    0.00    0.00       2.27   -3.12    0.02
#  23  -10.05   -2.14    1.01    4.48    0.22    0.00    0.00      -6.49    9.83    0.48
#  24    1.33   -1.57    0.37    0.26   -0.13    0.00    0.00       0.27    0.66   -0.33
#  25   -2.51   -1.71    0.86    1.78   -0.14    0.00    0.00      -1.73    4.80   -0.39
#  26   21.02   -2.17    0.60   -8.54   -0.05    0.00    0.00      10.86  -19.11   -0.11
#  27  -27.24   -2.17    1.58   13.18   -0.17    0.00    0.00     -14.83   32.77   -0.42
#  28  -31.20   -4.37    2.53   15.29   -0.20    0.00    0.00     -17.95   28.19   -0.37
#  29    0.08   -0.02    0.00   -0.01   -0.01    0.00    0.00       0.03   -0.37   -0.28
#  30    0.03   -0.02    0.00   -0.01   -0.01    0.00    0.00      -0.02   -0.54   -0.28
#  31    0.03   -0.01    0.00   -0.01    0.00    0.00    0.00       0.00   -0.48   -0.28
#  32    0.09   -0.01    0.00   -0.01    0.00    0.00    0.00       0.06   -0.76   -0.12
#  33    0.04   -0.02    0.00   -0.02   -0.01    0.00    0.00      -0.01   -1.15   -0.28
#  34    0.05   -0.01    0.00    0.00    0.00    0.00    0.00       0.04    0.35   -0.20
#  35    0.03   -0.02    0.00   -0.01   -0.01    0.00    0.00      -0.01   -0.58   -0.28
#  36    0.09   -0.08    0.00   -0.06   -0.02    0.00    0.00      -0.06   -0.88   -0.22
#  37    0.07   -0.09    0.00   -0.09   -0.02    0.00    0.00      -0.14   -1.04   -0.26
#  38    0.69   -0.05    0.00   -0.04    0.00    0.00    0.00       0.59   -1.02   -0.10
#  39    0.21   -0.02    0.00   -0.05   -0.01    0.00    0.00       0.13   -1.73   -0.28
#  40    0.60   -0.07    0.00    0.03   -0.02    0.00    0.00       0.54    0.39   -0.28
#  41    7.44   -0.01    0.00   -0.63    0.04    0.00    0.00       6.84   -6.07    0.36
#  42    0.61   -0.24    0.05   -0.34   -0.06    0.00    0.00       0.03   -1.63   -0.27
#  43    0.05   -1.07    0.96   -0.22   -0.12    0.00    0.00      -0.41   -0.50   -0.28
#  44    0.48   -0.96    0.94   -0.21   -0.11    0.00    0.00       0.14   -0.55   -0.28
#  45    3.60   -0.16    0.04   -0.25   -0.03    0.00    0.00       3.21   -1.77   -0.22
#  46    1.43   -0.30    0.05    0.02   -0.07    0.00    0.00       1.14    0.08   -0.26
#  47    0.73   -0.44    0.14   -0.65   -0.08    0.00    0.00      -0.30   -2.11   -0.26
#  48    0.98   -0.14    0.01   -0.26   -0.05    0.00    0.00       0.54   -1.58   -0.28
#  49    1.08   -0.21    0.03   -0.39   -0.06    0.00    0.00       0.45   -1.69   -0.28
#  50    2.62   -0.81    0.42   -1.32   -0.16    0.00    0.00       0.76   -2.26   -0.28
#  51    1.54   -0.90    1.62   -0.70   -0.12    0.00    0.00       1.44   -1.60   -0.28

@<TRIPOS>MOLECULE
       AVX40811_0       100
   51    53     0     0     0



@<TRIPOS>ATOM
      1 C1          4.7321   -22.3445   -24.3959 C.3        1          -0.1415
      2 C2          5.5192   -21.0818   -24.0400 C.3        1          -0.1162
      3 C3          4.5467   -19.9257   -23.7979 C.3        1          -0.1546
      4 C4          6.3393   -21.3323   -22.7729 C.3        1          -0.1037
      5 C5          7.3120   -22.4883   -23.0152 C.3        1          -0.1226
      6 C6          8.2517   -22.1308   -24.1686 C.3        1           0.1294
      7 N1          9.1830   -23.2376   -24.4006 N.am       1          -0.7118
      8 C7          8.8605   -24.2195   -25.2656 C.2        1           0.5589
      9 O1          7.7970   -24.1868   -25.8532 O.2        1          -0.5371
     10 C8          9.8004   -25.3364   -25.4998 C.ar       1          -0.1801
     11 C9          9.3284   -26.5913   -25.9035 C.ar       1          -0.0185
     12 C10        10.2493   -27.6031   -26.1098 C.ar       1          -0.1805
     13 C11        11.5942   -27.3450   -25.9125 C.ar       1           0.1160
     14 N2         12.0102   -26.1524   -25.5317 N.ar       1          -0.4869
     15 C12        11.1733   -25.1562   -25.3279 C.ar       1           0.1346
     16 C13         8.1320   -22.7389   -21.7481 C.3        1          -0.0644
     17 C14         8.7126   -24.1289   -21.7923 C.ar       1          -0.0515
     18 C15         7.8784   -25.2214   -21.8757 C.ar       1          -0.1145
     19 C16         8.4032   -26.5034   -21.9169 C.ar       1          -0.1167
     20 C17         9.7718   -26.6997   -21.8752 C.ar       1           0.0155
     21 O2         10.5381   -27.8267   -21.9000 O.3        1          -0.3171
     22 C18        11.8243   -27.4557   -21.3813 C.3        1           0.2109
     23 O3         11.9049   -26.0751   -21.7661 O.3        1          -0.2991
     24 C19        10.6298   -25.6051   -21.7913 C.ar       1           0.0478
     25 C20        10.1003   -24.3096   -21.7544 C.ar       1          -0.0866
     26 C21        10.9967   -23.1452   -21.6714 C.2        1           0.5359
     27 O4         11.4044   -22.6130   -22.6948 O.co2      1          -0.6781
     28 O5         11.3341   -22.7095   -20.5791 O.co2      1          -0.6729
     29 H1          5.4252   -23.1680   -24.5685 H          1           0.0484
     30 H2          4.0627   -22.5992   -23.5744 H          1           0.0487
     31 H3          4.1480   -22.1661   -25.2987 H          1           0.0471
     32 H4          6.1888   -20.8272   -24.8617 H          1           0.0935
     33 H5          5.1075   -19.0260   -23.5442 H          1           0.0430
     34 H6          3.9623   -19.7473   -24.7004 H          1           0.0801
     35 H7          3.8773   -20.1803   -22.9760 H          1           0.0441
     36 H8          6.9000   -20.4327   -22.5192 H          1           0.0540
     37 H9          5.6698   -21.5870   -21.9513 H          1           0.0595
     38 H10         6.7511   -23.3878   -23.2689 H          1           0.1279
     39 H11         7.6674   -21.9523   -25.0712 H          1           0.0631
     40 H12         8.8124   -21.2312   -23.9149 H          1           0.0768
     41 H13        10.0318   -23.2637   -23.9316 H          1           0.3999
     42 H14         8.2725   -26.7652   -26.0498 H          1           0.1476
     43 H15         9.9218   -28.5839   -26.4212 H          1           0.1418
     44 H16        12.3152   -28.1331   -26.0725 H          1           0.1599
     45 H17        11.5525   -24.1927   -25.0211 H          1           0.1589
     46 H18         8.9398   -22.0095   -21.6879 H          1           0.0836
     47 H19         7.4887   -22.6415   -20.8737 H          1           0.0703
     48 H20         6.8084   -25.0783   -21.9089 H          1           0.1306
     49 H21         7.7403   -27.3536   -21.9816 H          1           0.1256
     50 H22        11.8529   -27.5609   -20.2969 H          1           0.1241
     51 H23        12.6171   -28.0385   -21.8503 H          1           0.0769
@<TRIPOS>BOND
     1    1    2 1
     2    1   29 1
     3    1   30 1
     4    1   31 1
     5    2    3 1
     6    2    4 1
     7    2   32 1
     8    3   33 1
     9    3   34 1
    10    3   35 1
    11    4    5 1
    12    4   36 1
    13    4   37 1
    14    5    6 1
    15    5   16 1
    16    5   38 1
    17    6    7 1
    18    6   39 1
    19    6   40 1
    20    7    8 am
    21    7   41 1
    22    8    9 2
    23    8   10 1
    24   10   15 ar
    25   10   11 ar
    26   11   12 ar
    27   11   42 1
    28   12   13 ar
    29   12   43 1
    30   13   14 ar
    31   13   44 1
    32   14   15 ar
    33   15   45 1
    34   16   17 1
    35   16   46 1
    36   16   47 1
    37   17   25 ar
    38   17   18 ar
    39   18   19 ar
    40   18   48 1
    41   19   20 ar
    42   19   49 1
    43   20   24 ar
    44   20   21 1
    45   21   22 1
    46   22   23 1
    47   22   50 1
    48   22   51 1
    49   23   24 1
    50   24   25 ar
    51   25   26 1
    52   26   27 1
    53   26   28 2
