pC2A03_0, 3
##########                 Name:             pC2A03_0
##########          Protonation:                  100
##########               SMILES:   c1cc(ccc1n2cc3n(c2=O)CCCC3)Br
##########            Long Name:   2-(4-bromophenyl)-5,6,7,8-tetrahydroimidazo[1,5-a]pyridin-3-one
##########          FlexRecCode: 1
##########               Number:                   94
##########   Ligand Source File: /raid1/people/rgc/Examples/sampl4/screening/ligands/build_1//sampl4-hivint-00000
##########           GlobalRank: 96
##########                 Rank:                    1
##########               Setnum:                    3
##########             Matchnum:                 9645
##########                Cloud:                    1
##########        Electrostatic:           -13.225549
##########        Van der Waals:           -22.010429
##########  Ligand Polar Desolv:             4.578408
########## Ligand Apolar Desolv:            -3.486551
##########      Internal Energy:             0.000000
##########      Receptor Energy: 0.0
########## Receptor Desolvation:             0.000000
########## Receptor Hydrophobic:             0.000000
##########         Total Energy: -34.14
##########        Ligand Charge:             0.000000
##########            Arbitrary:    +999.9990
##########     heavy atom count:   17
##########           pose count:    1
##########        Ligand Energy:             0.000000
# num electro vdwattr vdwrepu polsolv apolsol rdesolv rhydroe totalscore fullpol fullapo
#   1   -0.63   -9.32    4.65    0.05   -0.75    0.00    0.00      -5.99    0.08   -1.09
#   2   -2.48   -2.69    0.91    0.15   -0.18    0.00    0.00      -4.28    0.26   -0.30
#   3   -1.55   -3.69    2.32   -0.02   -0.26    0.00    0.00      -3.20   -0.03   -0.46
#   4   -3.56   -3.10    1.40   -0.06   -0.23    0.00    0.00      -5.55   -0.12   -0.44
#   5    4.57   -1.56    0.29   -0.22   -0.29    0.00    0.00       2.79   -0.54   -0.70
#   6   -3.32   -1.26    0.18    0.40   -0.16    0.00    0.00      -4.17    1.07   -0.44
#   7   -1.31   -1.90    0.39    0.13   -0.21    0.00    0.00      -2.90    0.29   -0.46
#   8  -10.46   -1.01    0.08    0.63    0.46    0.00    0.00     -10.31    1.76    1.27
#   9   -0.28   -0.94    0.08   -0.02   -0.30    0.00    0.00      -1.45   -0.05   -0.89
#  10    0.50   -0.74    0.05    0.01   -0.19    0.00    0.00      -0.37    0.05   -0.69
#  11   -0.33   -0.55    0.10   -0.07   -0.07    0.00    0.00      -0.93   -0.27   -0.27
#  12   -0.52   -0.37    0.03   -0.14   -0.05    0.00    0.00      -1.06   -0.67   -0.25
#  13   -0.75   -0.91    0.28   -0.12   -0.07    0.00    0.00      -1.58   -0.44   -0.25
#  14    1.70   -0.80    0.17   -0.03   -0.15    0.00    0.00       0.89   -0.10   -0.53
#  15   -9.27   -1.03    0.23    0.42    0.46    0.00    0.00      -9.19    1.55    1.71
#  16   17.35   -1.39    0.49   -1.52   -0.72    0.00    0.00      14.21   -4.46   -2.12
#  17  -20.27   -1.91    0.61    3.23    0.16    0.00    0.00     -18.18    7.53    0.38
#  18    3.04   -0.77    0.34    0.38   -0.16    0.00    0.00       2.82    0.65   -0.28
#  19    3.09   -0.71    0.26    0.60   -0.13    0.00    0.00       3.11    1.07   -0.23
#  20    3.29   -0.13    0.01   -0.17   -0.03    0.00    0.00       2.96   -1.22   -0.19
#  21    1.99   -0.47    0.24   -0.19   -0.10    0.00    0.00       1.47   -0.50   -0.28
#  22    1.66   -0.27    0.04    0.50   -0.07    0.00    0.00       1.86    1.75   -0.24
#  23    0.47   -0.37    0.48    0.20   -0.05    0.00    0.00       0.73    1.08   -0.28
#  24    0.53   -0.19    0.02    0.19   -0.06    0.00    0.00       0.48    0.82   -0.28
#  25    0.29   -0.05    0.00    0.01   -0.01    0.00    0.00       0.24    0.27   -0.28
#  26    0.16   -0.10    0.01    0.09   -0.03    0.00    0.00       0.12    0.83   -0.28
#  27    0.25   -0.22    0.04    0.12   -0.06    0.00    0.00       0.13    0.61   -0.28
#  28    0.27   -0.91    1.94    0.09   -0.10    0.00    0.00       1.30    0.25   -0.28
#  29    0.82   -0.10    0.00    0.00   -0.03    0.00    0.00       0.70   -0.05   -0.28
#  30    1.53   -0.70    0.53   -0.07   -0.09    0.00    0.00       1.20   -0.20   -0.28

@<TRIPOS>MOLECULE
         pC2A03_0       100
   30    32     0     0     0



@<TRIPOS>ATOM
      1 Br1        15.9206   -28.3590   -22.8137 Br         1          -0.0461
      2 C1         14.1747   -27.6501   -22.6545 C.ar       1          -0.1107
      3 C2         13.4899   -27.7631   -21.4575 C.ar       1          -0.0630
      4 C3         12.2147   -27.2461   -21.3386 C.ar       1          -0.1404
      5 C4         11.6201   -26.6122   -22.4215 C.ar       1           0.1810
      6 C5         12.3097   -26.4997   -23.6214 C.ar       1          -0.1391
      7 C6         13.5866   -27.0141   -23.7335 C.ar       1          -0.0609
      8 N1         10.3262   -26.0872   -22.3037 N.am       1          -0.4795
      9 C7          9.1423   -26.7663   -22.5687 C.2        1          -0.0213
     10 C8          8.1409   -25.9328   -22.3481 C.2        1           0.0418
     11 C9          6.6598   -26.2030   -22.4584 C.3        1          -0.0509
     12 C10         5.9367   -24.8507   -22.5279 C.3        1          -0.1249
     13 C11         6.4300   -23.9585   -21.3845 C.3        1          -0.1351
     14 C12         7.8714   -23.5175   -21.6650 C.3        1           0.1312
     15 N2          8.6766   -24.7090   -21.9535 N.am       1          -0.5311
     16 C13        10.0114   -24.8359   -21.9075 C.2        1           0.6591
     17 O1         10.8011   -23.9724   -21.5700 O.2        1          -0.5520
     18 H1         13.9528   -28.2562   -20.6156 H          1           0.1412
     19 H2         11.6804   -27.3352   -20.4043 H          1           0.1384
     20 H3         11.8494   -26.0074   -24.4652 H          1           0.1631
     21 H4         14.1249   -26.9236   -24.6654 H          1           0.1407
     22 H5          9.0565   -27.7916   -22.8971 H          1           0.1865
     23 H6          6.4562   -26.7770   -23.3624 H          1           0.0937
     24 H7          6.3202   -26.7582   -21.5840 H          1           0.0900
     25 H8          6.1515   -24.3712   -23.4830 H          1           0.0712
     26 H9          4.8622   -25.0067   -22.4309 H          1           0.0809
     27 H10         5.7898   -23.0798   -21.3071 H          1           0.0904
     28 H11         6.3964   -24.5160   -20.4484 H          1           0.0755
     29 H12         7.8884   -22.8473   -22.5243 H          1           0.0801
     30 H13         8.2744   -23.0063   -20.7907 H          1           0.0903
@<TRIPOS>BOND
     1    1    2 1
     2    2    7 ar
     3    2    3 ar
     4    3    4 ar
     5    3   18 1
     6    4    5 ar
     7    4   19 1
     8    5    6 ar
     9    5    8 1
    10    6    7 ar
    11    6   20 1
    12    7   21 1
    13    8   16 am
    14    8    9 1
    15    9   10 2
    16    9   22 1
    17   10   15 1
    18   10   11 1
    19   11   12 1
    20   11   23 1
    21   11   24 1
    22   12   13 1
    23   12   25 1
    24   12   26 1
    25   13   14 1
    26   13   27 1
    27   13   28 1
    28   14   15 1
    29   14   29 1
    30   14   30 1
    31   15   16 am
    32   16   17 2
