@<TRIPOS>MOLECULE
AVX17377_0_11
   35    38     0     0     0
SMALL
USER_CHARGES

@<TRIPOS>ATOM
      1 C1       21.4343  -44.1925   -7.4724 C.ar      1 <0>        -0.1893
      2 C2       20.3311  -43.3179   -7.4747 C.ar      1 <0>        -0.0953
      3 C3       22.7279  -43.7153   -7.7063 C.ar      1 <0>        -0.0837
      4 C4       21.0475  -39.3159   -5.8062 C.ar      1 <0>        -0.1354
      5 C5       20.5030  -41.9518   -7.7107 C.ar      1 <0>        -0.1827
      6 C6       20.8024  -38.8151   -4.5233 C.ar      1 <0>        -0.1537
      7 C7       20.9182  -37.0765   -6.7567 C.ar      1 <0>        -0.0405
      8 C8       22.8880  -42.3619   -7.9392 C.ar      1 <0>        -0.1561
      9 C9       21.1052  -38.4516   -6.9165 C.ar      1 <0>        -0.1101
     10 C10      21.7912  -41.4978   -7.9405 C.ar      1 <0>         0.0890
     11 C11      20.6212  -37.4536   -4.3926 C.ar      1 <0>         0.0431
     12 C12      20.6777  -36.6075   -5.4794 C.ar      1 <0>         0.0569
     13 C13      23.6276  -40.1592   -8.3759 C.2       1 <0>         0.6871
     14 C14      20.9740  -36.1519   -7.9036 C.2       1 <0>         0.9161
     15 C15      24.1417  -41.5933   -8.2141 C.3       1 <0>        -0.1170
     16 C16      20.2813  -35.4302   -3.7051 C.3       1 <0>         0.3193
     17 C17      21.3713  -39.0386   -8.2749 C.3       1 <0>         0.1533
     18 N1       22.2351  -40.1945   -8.1995 N.am      1 <0>        -0.3716
     19 O1       22.1255  -35.7279   -8.2972 O.co2     1 <0>        -0.8239
     20 O2       24.3363  -39.1921   -8.6140 O.2       1 <0>        -0.5245
     21 O3       19.8695  -35.7971   -8.4755 O.co2     1 <0>        -0.7855
     22 O4       20.3746  -36.7892   -3.2290 O.3       1 <0>        -0.3601
     23 O5       20.4732  -35.3077   -5.1323 O.3       1 <0>        -0.3114
     24 H1       21.2771  -45.2515   -7.2854 H         1 <0>         0.1177
     25 H2       19.3337  -43.7112   -7.2904 H         1 <0>         0.1213
     26 H3       23.5777  -44.3913   -7.7031 H         1 <0>         0.1249
     27 H4       21.1939  -40.3852   -5.9386 H         1 <0>         0.1165
     28 H5       19.6470  -41.2844   -7.7111 H         1 <0>         0.1419
     29 H6       20.7572  -39.4779   -3.6645 H         1 <0>         0.1300
     30 H7       24.8383  -41.6412   -7.3662 H         1 <0>         0.0826
     31 H8       24.6117  -41.9187   -9.1463 H         1 <0>         0.0806
     32 H9       19.2889  -35.0363   -3.4527 H         1 <0>         0.0511
     33 H10      21.0440  -34.8286   -3.1902 H         1 <0>         0.0482
     34 H11      20.4325  -39.3451   -8.7589 H         1 <0>         0.1152
     35 H12      21.8491  -38.3055   -8.9333 H         1 <0>         0.0462
@<TRIPOS>BOND
     1    1    2 ar
     2    1    3 ar
     3    2    5 ar
     4    3    8 ar
     5    4    6 ar
     6    4    9 ar
     7    5   10 ar
     8    6   11 ar
     9    7    9 ar
    10    7   12 ar
    11    7   14 1
    12    8   10 ar
    13    8   15 1
    14    9   17 1
    15   10   18 1
    16   11   12 ar
    17   11   22 1
    18   12   23 1
    19   13   15 1
    20   13   18 am
    21   13   20 2
    22   14   19 1
    23   14   21 2
    24   16   22 1
    25   16   23 1
    26   17   18 1
    27    1   24 1
    28    2   25 1
    29    3   26 1
    30    4   27 1
    31    5   28 1
    32    6   29 1
    33   15   30 1
    34   15   31 1
    35   16   32 1
    36   16   33 1
    37   17   34 1
    38   17   35 1
