@<TRIPOS>MOLECULE
AVX17558_3_5
   53    56     0     0     0
SMALL
USER_CHARGES

@<TRIPOS>ATOM
      1 C1       11.7870  -49.2995    2.7047 C.ar      1 <0>        -0.1412
      2 C2       11.1750  -48.0573    2.9495 C.ar      1 <0>        -0.1292
      3 C3       12.6558  -49.4608    1.6232 C.ar      1 <0>        -0.1276
      4 C4       11.4209  -46.9587    2.1147 C.ar      1 <0>        -0.0956
      5 C5        9.5557  -45.2296    0.3204 C.ar      1 <0>        -0.1523
      6 C6        8.6219  -44.2889    0.7623 C.ar      1 <0>        -0.1528
      7 C7       10.6844  -43.5319   -1.0255 C.ar      1 <0>        -0.0682
      8 C8       12.9038  -48.3632    0.8074 C.ar      1 <0>        -0.1115
      9 C9       12.2879  -47.1249    1.0458 C.ar      1 <0>        -0.0787
     10 C10      10.5812  -44.8533   -0.5683 C.ar      1 <0>        -0.0845
     11 C11       8.7461  -42.9909    0.2958 C.ar      1 <0>         0.0431
     12 C12       9.7499  -42.6225   -0.5740 C.ar      1 <0>         0.0696
     13 C13      11.7490  -43.1140   -1.9559 C.2       1 <0>         0.9180
     14 C14      15.4226  -45.6137   -2.1968 C.2       1 <0>         0.6615
     15 C15      13.7676  -48.3017   -0.4137 C.3       1 <0>        -0.0537
     16 C16       8.5397  -40.8769   -0.1518 C.3       1 <0>         0.3177
     17 C17      12.6829  -46.1050    0.0035 C.3       1 <0>        -0.0349
     18 C18      13.9648  -46.7748   -0.5605 C.3       1 <0>         0.1016
     19 C19      11.5630  -45.9044   -1.0156 C.3       1 <0>        -0.0189
     20 C20      15.5359  -45.3449   -3.6887 C.3       1 <0>        -0.1714
     21 C21      16.9810  -45.3743   -4.1804 C.3       1 <0>        -0.1034
     22 C22      17.5482  -46.7881   -4.1181 C.3       1 <0>         0.0992
     23 N1       14.3051  -46.3805   -1.9007 N.am      1 <0>        -0.5287
     24 N2       16.6577  -47.7062   -4.8706 N.4       1 <0>        -0.8390
     25 O1       12.9097  -42.8232   -1.4796 O.co2     1 <0>        -0.8058
     26 O2       11.4847  -43.0526   -3.2156 O.co2     1 <0>        -0.8078
     27 O3       16.2315  -45.1919   -1.3749 O.2       1 <0>        -0.6261
     28 O4        7.9347  -41.9449    0.6151 O.3       1 <0>        -0.3558
     29 O5        9.6923  -41.2999   -0.9084 O.3       1 <0>        -0.3066
     30 H1       11.5862  -50.1419    3.3679 H         1 <0>         0.1227
     31 H2       10.5103  -47.9490    3.8022 H         1 <0>         0.1322
     32 H3       13.1222  -50.4236    1.4325 H         1 <0>         0.1225
     33 H4       10.9446  -46.0030    2.3110 H         1 <0>         0.1686
     34 H5        9.4816  -46.2603    0.6717 H         1 <0>         0.0966
     35 H6        7.8298  -44.5747    1.4474 H         1 <0>         0.1256
     36 H7       14.7190  -48.8026   -0.2082 H         1 <0>         0.0728
     37 H8       13.2854  -48.7523   -1.2852 H         1 <0>         0.0450
     38 H9        7.7925  -40.4735   -0.8467 H         1 <0>         0.0582
     39 H10       8.8448  -40.0792    0.5358 H         1 <0>         0.0574
     40 H11      12.9113  -45.1867    0.4897 H         1 <0>         0.1302
     41 H12      14.8541  -46.4542    0.0577 H         1 <0>         0.0956
     42 H13      11.0401  -46.8571   -1.1787 H         1 <0>         0.1039
     43 H14      11.9918  -45.6185   -1.9854 H         1 <0>         0.0102
     44 H15      15.0919  -44.3610   -3.8973 H         1 <0>         0.0769
     45 H16      14.9443  -46.1045   -4.2163 H         1 <0>         0.0680
     46 H17      17.5933  -44.6958   -3.5704 H         1 <0>         0.0856
     47 H18      17.0293  -44.9937   -5.2102 H         1 <0>         0.0944
     48 H19      18.5361  -46.8512   -4.5834 H         1 <0>         0.1076
     49 H20      17.5975  -47.1691   -3.0923 H         1 <0>         0.1127
     50 H21      13.6724  -46.6526   -2.6447 H         1 <0>         0.3191
     51 H22      17.0357  -48.6623   -4.8823 H         1 <0>         0.4564
     52 H23      16.5511  -47.3942   -5.8434 H         1 <0>         0.4593
     53 H24      15.7242  -47.7443   -4.4462 H         1 <0>         0.4617
@<TRIPOS>BOND
     1    1    2 ar
     2    1    3 ar
     3    2    4 ar
     4    3    8 ar
     5    4    9 ar
     6    5    6 ar
     7    5   10 ar
     8    6   11 ar
     9    7   10 ar
    10    7   12 ar
    11    7   13 1
    12    8    9 ar
    13    8   15 1
    14    9   17 1
    15   10   19 1
    16   11   12 ar
    17   11   28 1
    18   12   29 1
    19   13   25 1
    20   13   26 2
    21   14   20 1
    22   14   23 am
    23   14   27 2
    24   15   18 1
    25   16   28 1
    26   16   29 1
    27   17   18 1
    28   17   19 1
    29   18   23 1
    30   20   21 1
    31   21   22 1
    32   22   24 1
    33    1   30 1
    34    2   31 1
    35    3   32 1
    36    4   33 1
    37    5   34 1
    38    6   35 1
    39   15   36 1
    40   15   37 1
    41   16   38 1
    42   16   39 1
    43   17   40 1
    44   18   41 1
    45   19   42 1
    46   19   43 1
    47   20   44 1
    48   20   45 1
    49   21   46 1
    50   21   47 1
    51   22   48 1
    52   22   49 1
    53   23   50 1
    54   24   51 1
    55   24   52 1
    56   24   53 1
