@<TRIPOS>MOLECULE
AVX17631_0_1
   16    17     0     0     0
SMALL
USER_CHARGES

@<TRIPOS>ATOM
      1 C1       21.3647  -36.6942   -5.4146 C.ar      1 <0>        -0.1581
      2 C2       20.4731  -35.7589   -4.8788 C.ar      1 <0>        -0.0926
      3 C3       21.9311  -37.6966   -4.6146 C.ar      1 <0>        -0.0591
      4 C4       20.1138  -35.7881   -3.5272 C.ar      1 <0>        -0.1241
      5 C5       21.5798  -37.7378   -3.2571 C.ar      1 <0>        -0.2434
      6 C6       20.6946  -36.7956   -2.7628 C.ar      1 <0>         0.0673
      7 C7       21.8861  -38.5262   -2.1312 C.2       1 <0>         0.5500
      8 N1       21.2489  -38.1125   -1.0315 N.2       1 <0>        -0.4587
      9 N2       22.7409  -39.5791   -2.2018 N.pl3     1 <0>        -0.8581
     10 O1       20.4955  -37.0169   -1.4345 O.3       1 <0>        -0.0110
     11 H1       21.6240  -36.6433   -6.4691 H         1 <0>         0.1380
     12 H2       20.0500  -34.9948   -5.5265 H         1 <0>         0.1390
     13 H3       22.6207  -38.4161   -5.0451 H         1 <0>         0.1389
     14 H4       19.4251  -35.0676   -3.1030 H         1 <0>         0.1580
     15 H5       23.1636  -39.8735   -3.0899 H         1 <0>         0.4032
     16 H6       22.9254  -40.1800   -1.3903 H         1 <0>         0.4108
@<TRIPOS>BOND
     1    1    2 ar
     2    1    3 ar
     3    2    4 ar
     4    3    5 ar
     5    4    6 ar
     6    5    6 ar
     7    5    7 1
     8    6   10 1
     9    7    8 2
    10    7    9 1
    11    8   10 1
    12    1   11 1
    13    2   12 1
    14    3   13 1
    15    4   14 1
    16    9   15 1
    17    9   16 1
