@<TRIPOS>MOLECULE
AVX17285_0_4
   30    32     0     0     0
SMALL
USER_CHARGES

@<TRIPOS>ATOM
      1 C1       23.6565  -41.9190   -4.5989 C.ar      1 <0>        -0.1603
      2 C2       24.1514  -42.3194   -3.3432 C.ar      1 <0>        -0.1076
      3 C3       20.2101  -39.8781   -7.4649 C.ar      1 <0>        -0.1652
      4 C4       22.7799  -40.8349   -4.7151 C.ar      1 <0>        -0.0584
      5 C5       20.2404  -39.6703   -6.0861 C.ar      1 <0>        -0.1391
      6 C6       20.7592  -38.9234   -8.3254 C.ar      1 <0>        -0.0989
      7 C7       23.7797  -41.6439   -2.1794 C.ar      1 <0>        -0.1829
      8 C8       21.3615  -37.5537   -6.4276 C.ar      1 <0>        -0.0866
      9 C9       22.4165  -40.1713   -3.5588 C.ar      1 <0>        -0.0872
     10 C10      20.8160  -38.5081   -5.5673 C.ar      1 <0>        -0.1398
     11 C11      21.3312  -37.7615   -7.8065 C.ar      1 <0>        -0.1280
     12 C12      22.9137  -40.5771   -2.3166 C.ar      1 <0>         0.0515
     13 C13      21.5500  -39.0298   -3.2858 C.2       1 <0>        -0.1470
     14 C14      21.5590  -38.7781   -1.8058 C.2       1 <0>         0.7062
     15 C15      20.8463  -38.2950   -4.1493 C.2       1 <0>         0.0431
     16 C16      21.9065  -36.7543   -8.7142 C.2       1 <0>         0.9084
     17 N1       22.4117  -39.7624   -1.2959 N.am      1 <0>        -0.4880
     18 O1       22.2859  -35.6221   -8.2271 O.co2     1 <0>        -0.8244
     19 O2       20.9523  -37.9069   -1.2108 O.2       1 <0>        -0.6287
     20 O3       22.0115  -37.0383   -9.9660 O.co2     1 <0>        -0.8264
     21 H1       23.9610  -42.4612   -5.4903 H         1 <0>         0.1364
     22 H2       24.8312  -43.1651   -3.2814 H         1 <0>         0.1178
     23 H3       19.7619  -40.7833   -7.8686 H         1 <0>         0.1099
     24 H4       22.4051  -40.5351   -5.6876 H         1 <0>         0.1702
     25 H5       19.8116  -40.4236   -5.4281 H         1 <0>         0.1115
     26 H6       20.7484  -39.0836   -9.4003 H         1 <0>         0.1543
     27 H7       24.1602  -41.9512   -1.2119 H         1 <0>         0.1260
     28 H8       21.8117  -36.6452   -6.0279 H         1 <0>         0.1607
     29 H9       20.2750  -37.4568   -3.7505 H         1 <0>         0.1435
     30 H10      22.6370  -39.8716   -0.3140 H         1 <0>         0.3290
@<TRIPOS>BOND
     1    1    2 ar
     2    1    4 ar
     3    2    7 ar
     4    3    5 ar
     5    3    6 ar
     6    4    9 ar
     7    5   10 ar
     8    6   11 ar
     9    7   12 ar
    10    8   10 ar
    11    8   11 ar
    12    9   12 ar
    13    9   13 1
    14   10   15 1
    15   11   16 1
    16   12   17 1
    17   13   14 1
    18   13   15 2
    19   14   17 am
    20   14   19 2
    21   16   18 1
    22   16   20 2
    23    1   21 1
    24    2   22 1
    25    3   23 1
    26    4   24 1
    27    5   25 1
    28    6   26 1
    29    7   27 1
    30    8   28 1
    31   15   29 1
    32   17   30 1
