@<TRIPOS>MOLECULE
AVX17379_0_3
   32    33     0     0     0
SMALL
USER_CHARGES

@<TRIPOS>ATOM
      1 C1        7.9060  -42.1357    0.2398 C.ar      1 <0>        -0.1197
      2 C2        9.0372  -41.6456   -0.4522 C.ar      1 <0>        -0.0681
      3 C3        7.8698  -43.4475    0.6553 C.ar      1 <0>        -0.0912
      4 C4       10.1418  -42.4762   -0.6398 C.ar      1 <0>        -0.1260
      5 C5       12.8892  -45.6814   -1.2754 C.2       1 <0>        -0.2824
      6 C6        8.9744  -44.2783    0.4677 C.ar      1 <0>        -0.1806
      7 C7       10.1104  -43.7926   -0.1799 C.ar      1 <0>         0.0574
      8 C8       12.7775  -45.9176    0.1093 C.2       1 <0>         0.3448
      9 C9       11.8586  -44.8200   -1.5614 C.2       1 <0>        -0.0420
     10 C10      11.4473  -44.2054   -2.8403 C.3       1 <0>        -0.0507
     11 C11       8.9078  -45.6841    0.9723 C.3       1 <0>         0.1815
     12 C12      13.6353  -46.7742    0.9460 C.3       1 <0>         0.1008
     13 N1       11.7564  -45.2590    0.6645 N.2       1 <0>        -0.5786
     14 N2       11.2173  -44.6007   -0.3768 N.pl3     1 <0>         0.1085
     15 N3        9.5626  -45.8647    2.2972 N.4       1 <0>        -0.8357
     16 O1       14.6374  -45.9863    1.5916 O.3       1 <0>        -0.6193
     17 H1        7.0477  -41.4904    0.4031 H         1 <0>         0.1638
     18 H2        9.0613  -40.6206   -0.8104 H         1 <0>         0.1696
     19 H3        6.9795  -43.8166    1.1578 H         1 <0>         0.1470
     20 H4       11.0198  -42.0838   -1.1472 H         1 <0>         0.1677
     21 H5       13.6155  -46.0804   -1.9697 H         1 <0>         0.1864
     22 H6       10.7192  -44.8407   -3.3712 H         1 <0>         0.0699
     23 H7       10.9835  -43.2155   -2.6926 H         1 <0>         0.0588
     24 H8       12.3044  -44.0428   -3.5166 H         1 <0>         0.0803
     25 H9        7.8698  -46.0187    1.0903 H         1 <0>         0.1231
     26 H10       9.4017  -46.3806    0.2828 H         1 <0>         0.1023
     27 H11      13.0638  -47.3015    1.7322 H         1 <0>         0.0617
     28 H12      14.1462  -47.5549    0.3526 H         1 <0>         0.0576
     29 H13       9.0807  -46.5829    2.8457 H         1 <0>         0.4687
     30 H14       9.5469  -44.9910    2.8323 H         1 <0>         0.4788
     31 H15      10.5389  -46.1516    2.1832 H         1 <0>         0.4428
     32 H16      15.1667  -46.5995    2.1234 H         1 <0>         0.4228
@<TRIPOS>BOND
     1    1    2 ar
     2    1    3 ar
     3    2    4 ar
     4    3    6 ar
     5    4    7 ar
     6    5    8 1
     7    5    9 2
     8    6    7 ar
     9    6   11 1
    10    7   14 1
    11    8   12 1
    12    8   13 2
    13    9   10 1
    14    9   14 1
    15   11   15 1
    16   12   16 1
    17   13   14 1
    18    1   17 1
    19    2   18 1
    20    3   19 1
    21    4   20 1
    22    5   21 1
    23   10   22 1
    24   10   23 1
    25   10   24 1
    26   11   25 1
    27   11   26 1
    28   12   27 1
    29   12   28 1
    30   15   29 1
    31   15   30 1
    32   15   31 1
    33   16   32 1
