@<TRIPOS>MOLECULE
AVX17557_3_3
   59    62     0     0     0
SMALL
USER_CHARGES

@<TRIPOS>ATOM
      1 C1       11.2529  -49.3042    2.9336 C.ar      1 <0>        -0.1428
      2 C2       10.7252  -48.0170    3.1206 C.ar      1 <0>        -0.1318
      3 C3       12.1441  -49.5638    1.8904 C.ar      1 <0>        -0.1286
      4 C4       11.0789  -46.9710    2.2659 C.ar      1 <0>        -0.0980
      5 C5        9.4190  -45.1778    0.3761 C.ar      1 <0>        -0.1503
      6 C6        8.5394  -44.1626    0.7592 C.ar      1 <0>        -0.1526
      7 C7       10.6827  -43.6208   -1.0041 C.ar      1 <0>        -0.0674
      8 C8       12.4993  -48.5184    1.0546 C.ar      1 <0>        -0.1075
      9 C9       11.9676  -47.2349    1.2355 C.ar      1 <0>        -0.0764
     10 C10      10.4846  -44.9086   -0.5005 C.ar      1 <0>        -0.0833
     11 C11       8.7383  -42.9017    0.2078 C.ar      1 <0>         0.0404
     12 C12       9.8001  -42.6363   -0.6103 C.ar      1 <0>         0.0673
     13 C13      11.7909  -43.3145   -1.9229 C.2       1 <0>         0.9183
     14 C14      15.1392  -45.8280   -1.9374 C.2       1 <0>         0.6587
     15 C15      13.4066  -48.5607   -0.1341 C.3       1 <0>        -0.0557
     16 C16       8.6973  -40.8035   -0.2839 C.3       1 <0>         0.3182
     17 C17      12.4715  -46.2848    0.1813 C.3       1 <0>        -0.0343
     18 C18      13.7196  -47.0630   -0.3157 C.3       1 <0>         0.1047
     19 C19      11.4050  -46.0369   -0.8835 C.3       1 <0>        -0.0179
     20 C20      15.3412  -45.6697   -3.4355 C.3       1 <0>        -0.1643
     21 C21      16.5509  -44.8133   -3.8068 C.3       1 <0>        -0.0702
     22 C22      17.8335  -45.2827   -3.1118 C.3       1 <0>        -0.0934
     23 C23      18.0816  -46.7735   -3.3602 C.3       1 <0>        -0.1205
     24 C24      18.0300  -47.1594   -4.8329 C.3       1 <0>         0.1074
     25 N1       14.1336  -46.7402   -1.6522 N.am      1 <0>        -0.5441
     26 N2       18.1121  -48.6297   -4.9923 N.4       1 <0>        -0.8422
     27 O1       12.9468  -43.0362   -1.4283 O.co2     1 <0>        -0.8119
     28 O2       11.5679  -43.3346   -3.1910 O.co2     1 <0>        -0.8053
     29 O3       15.7832  -45.1999   -1.1016 O.2       1 <0>        -0.6199
     30 O4        8.0231  -41.7917    0.5369 O.3       1 <0>        -0.3575
     31 O5        9.8353  -41.3316   -0.9954 O.3       1 <0>        -0.3079
     32 H1       10.9685  -50.1046    3.6115 H         1 <0>         0.1204
     33 H2       10.0412  -47.8327    3.9443 H         1 <0>         0.1295
     34 H3       12.5452  -50.5609    1.7441 H         1 <0>         0.1220
     35 H4       10.6672  -45.9801    2.4176 H         1 <0>         0.1664
     36 H5        9.2711  -46.1829    0.7638 H         1 <0>         0.1036
     37 H6        7.7166  -44.3659    1.4348 H         1 <0>         0.1259
     38 H7       14.3113  -49.1214    0.1203 H         1 <0>         0.0700
     39 H8       12.9233  -49.0017   -1.0097 H         1 <0>         0.0481
     40 H9        7.9925  -40.3834   -1.0105 H         1 <0>         0.0570
     41 H10       9.0393  -40.0008    0.3795 H         1 <0>         0.0545
     42 H11      12.7495  -45.3731    0.6497 H         1 <0>         0.1256
     43 H12      14.6085  -46.7889    0.3246 H         1 <0>         0.0937
     44 H13      10.8229  -46.9520   -1.0424 H         1 <0>         0.1000
     45 H14      11.8865  -45.8126   -1.8426 H         1 <0>         0.0120
     46 H15      15.4216  -46.6603   -3.8979 H         1 <0>         0.0579
     47 H16      14.4356  -45.1934   -3.8307 H         1 <0>         0.0607
     48 H17      16.6955  -44.8712   -4.8926 H         1 <0>         0.0710
     49 H18      16.3602  -43.7608   -3.5664 H         1 <0>         0.0747
     50 H19      17.7520  -45.1004   -2.0335 H         1 <0>         0.0184
     51 H20      18.6843  -44.6973   -3.4750 H         1 <0>         0.0554
     52 H21      19.0727  -47.0395   -2.9733 H         1 <0>         0.0787
     53 H22      17.3529  -47.3671   -2.7949 H         1 <0>         0.1114
     54 H23      17.1023  -46.8348   -5.3127 H         1 <0>         0.1057
     55 H24      18.8661  -46.7433   -5.3950 H         1 <0>         0.1101
     56 H25      13.6673  -47.2025   -2.4270 H         1 <0>         0.3126
     57 H26      17.9533  -49.1068   -4.0980 H         1 <0>         0.4672
     58 H27      19.0357  -48.9113   -5.3395 H         1 <0>         0.4597
     59 H28      17.4090  -48.9680   -5.6586 H         1 <0>         0.4569
@<TRIPOS>BOND
     1    1    2 ar
     2    1    3 ar
     3    2    4 ar
     4    3    8 ar
     5    4    9 ar
     6    5    6 ar
     7    5   10 ar
     8    6   11 ar
     9    7   10 ar
    10    7   12 ar
    11    7   13 1
    12    8    9 ar
    13    8   15 1
    14    9   17 1
    15   10   19 1
    16   11   12 ar
    17   11   30 1
    18   12   31 1
    19   13   27 1
    20   13   28 2
    21   14   20 1
    22   14   25 am
    23   14   29 2
    24   15   18 1
    25   16   30 1
    26   16   31 1
    27   17   18 1
    28   17   19 1
    29   18   25 1
    30   20   21 1
    31   21   22 1
    32   22   23 1
    33   23   24 1
    34   24   26 1
    35    1   32 1
    36    2   33 1
    37    3   34 1
    38    4   35 1
    39    5   36 1
    40    6   37 1
    41   15   38 1
    42   15   39 1
    43   16   40 1
    44   16   41 1
    45   17   42 1
    46   18   43 1
    47   19   44 1
    48   19   45 1
    49   20   46 1
    50   20   47 1
    51   21   48 1
    52   21   49 1
    53   22   50 1
    54   22   51 1
    55   23   52 1
    56   23   53 1
    57   24   54 1
    58   24   55 1
    59   25   56 1
    60   26   57 1
    61   26   58 1
    62   26   59 1
