@<TRIPOS>MOLECULE
AVX17257_0_10
   32    34     0     0     0
SMALL
USER_CHARGES

@<TRIPOS>ATOM
      1 C1       12.5362  -49.2050   -0.5182 C.ar      1 <0>        -0.1513
      2 C2        8.6987  -41.0702   -0.6363 C.ar      1 <0>        -0.1886
      3 C3       11.4161  -48.6346   -1.1544 C.ar      1 <0>        -0.1648
      4 C4        9.7149  -41.2799   -1.5848 C.ar      1 <0>        -0.0962
      5 C5       13.4959  -48.3898    0.0512 C.ar      1 <0>        -0.1132
      6 C6        8.5163  -41.9610    0.4242 C.ar      1 <0>        -0.0840
      7 C7       11.3205  -47.2479   -1.2707 C.ar      1 <0>        -0.1428
      8 C8       10.5656  -42.3837   -1.4885 C.ar      1 <0>        -0.1772
      9 C9       13.4003  -47.0031   -0.0652 C.ar      1 <0>        -0.0874
     10 C10       9.3629  -43.0506    0.5108 C.ar      1 <0>        -0.1616
     11 C11      12.3126  -46.4321   -0.7261 C.ar      1 <0>        -0.0897
     12 C12      10.3696  -43.2550   -0.4319 C.ar      1 <0>         0.0916
     13 C13      10.5551  -45.0194    1.0510 C.2       1 <0>         0.6939
     14 C14      14.4612  -46.1600    0.5160 C.2       1 <0>         0.9092
     15 C15       9.3917  -44.1456    1.5279 C.3       1 <0>        -0.1151
     16 C16      12.1852  -44.9426   -0.8655 C.3       1 <0>         0.1401
     17 N1       11.0727  -44.4224   -0.1069 N.am      1 <0>        -0.3682
     18 O1       15.3970  -45.7270   -0.2538 O.co2     1 <0>        -0.8408
     19 O2       10.9298  -46.0405    1.6083 O.2       1 <0>        -0.5651
     20 O3       14.4144  -45.8869    1.7726 O.co2     1 <0>        -0.8105
     21 H1       12.6235  -50.2844   -0.4378 H         1 <0>         0.1061
     22 H2        8.0492  -40.2040   -0.7302 H         1 <0>         0.1195
     23 H3       10.6436  -49.2696   -1.5788 H         1 <0>         0.1020
     24 H4        9.8386  -40.5739   -2.4016 H         1 <0>         0.1205
     25 H5       14.3395  -48.8454    0.5637 H         1 <0>         0.1458
     26 H6        7.7325  -41.7970    1.1553 H         1 <0>         0.1234
     27 H7       10.4692  -46.8127   -1.7877 H         1 <0>         0.1082
     28 H8       11.3464  -42.5382   -2.2243 H         1 <0>         0.1455
     29 H9        9.6118  -43.7579    2.5259 H         1 <0>         0.0812
     30 H10       8.4672  -44.7286    1.5140 H         1 <0>         0.0810
     31 H11      13.0951  -44.4427   -0.5158 H         1 <0>         0.1343
     32 H12      12.0389  -44.6571   -1.9126 H         1 <0>         0.0542
@<TRIPOS>BOND
     1    1    3 ar
     2    1    5 ar
     3    2    4 ar
     4    2    6 ar
     5    3    7 ar
     6    4    8 ar
     7    5    9 ar
     8    6   10 ar
     9    7   11 ar
    10    8   12 ar
    11    9   11 ar
    12    9   14 1
    13   10   12 ar
    14   10   15 1
    15   11   16 1
    16   12   17 1
    17   13   15 1
    18   13   17 am
    19   13   19 2
    20   14   18 1
    21   14   20 2
    22   16   17 1
    23    1   21 1
    24    2   22 1
    25    3   23 1
    26    4   24 1
    27    5   25 1
    28    6   26 1
    29    7   27 1
    30    8   28 1
    31   15   29 1
    32   15   30 1
    33   16   31 1
    34   16   32 1
