@<TRIPOS>MOLECULE
AVX-17543_0_10
   57    58     0     0     0
SMALL
USER_CHARGES

@<TRIPOS>ATOM
      1 C1        9.3996  -46.6168    0.5409 C.ar      1 <0>        -0.1603
      2 C2        9.1474  -47.2413    1.7685 C.ar      1 <0>        -0.1884
      3 C3       11.7483  -47.2479    0.6538 C.ar      1 <0>        -0.0751
      4 C4       10.6904  -46.6273    0.0005 C.ar      1 <0>        -0.0436
      5 C5       10.2071  -47.8540    2.4067 C.ar      1 <0>         0.0305
      6 C6       11.4728  -47.8573    1.8643 C.ar      1 <0>         0.0703
      7 C7       13.1103  -47.2648    0.0938 C.2       1 <0>         0.9274
      8 C8       13.9575  -44.5124   -2.8172 C.2       1 <0>         0.6372
      9 C9       11.5252  -48.9243    3.7517 C.3       1 <0>         0.3197
     10 C10       7.8671  -42.8030   -0.3100 C.3       1 <0>        -0.0911
     11 C11      10.9119  -45.9380   -1.3293 C.3       1 <0>        -0.0434
     12 C12      14.8882  -45.1835   -3.8191 C.3       1 <0>        -0.1557
     13 C13       8.8692  -43.6291   -1.1072 C.3       1 <0>        -0.0882
     14 C14      16.3061  -45.3962   -3.2895 C.3       1 <0>        -0.0590
     15 C15      17.2241  -46.0490   -4.3339 C.3       1 <0>        -0.1121
     16 C16      18.6401  -46.2349   -3.7781 C.3       1 <0>        -0.1084
     17 C17      10.2445  -43.6334   -0.4305 C.3       1 <0>        -0.0711
     18 C18      11.5827  -43.7935   -2.5815 C.3       1 <0>         0.0896
     19 C19      19.5978  -46.8867   -4.7727 C.3       1 <0>         0.1052
     20 C20      11.3099  -44.4475   -1.2069 C.3       1 <0>        -0.0742
     21 N1       12.6659  -44.4112   -3.3157 N.am      1 <0>        -0.5267
     22 N2       19.6825  -46.0919   -6.0244 N.4       1 <0>        -0.8432
     23 O1       14.0249  -47.9285    0.7136 O.co2     1 <0>        -0.7614
     24 O2       13.3427  -46.6151   -0.9972 O.co2     1 <0>        -0.8425
     25 O3       14.3295  -44.0993   -1.7175 O.2       1 <0>        -0.6812
     26 O4       10.1522  -48.5089    3.6020 O.3       1 <0>        -0.3723
     27 O5       12.3686  -48.5146    2.6522 O.3       1 <0>        -0.3022
     28 H1        8.5829  -46.1258    0.0156 H         1 <0>         0.1135
     29 H2        8.1521  -47.2412    2.1992 H         1 <0>         0.0809
     30 H3       11.9218  -48.4962    4.6838 H         1 <0>         0.0569
     31 H4       11.5542  -50.0175    3.8264 H         1 <0>         0.0668
     32 H5        7.7333  -43.2092    0.7010 H         1 <0>         0.0263
     33 H6        8.2059  -41.7739   -0.2007 H         1 <0>         0.0345
     34 H7        6.8933  -42.8074   -0.8115 H         1 <0>         0.0264
     35 H8       11.6652  -46.4820   -1.9163 H         1 <0>         0.1012
     36 H9        9.9783  -46.0377   -1.8982 H         1 <0>         0.0414
     37 H10      14.4537  -46.1391   -4.1373 H         1 <0>         0.0633
     38 H11      14.9324  -44.5332   -4.7042 H         1 <0>         0.0812
     39 H12       8.4953  -44.6553   -1.2007 H         1 <0>         0.0550
     40 H13       8.9374  -43.2134   -2.1208 H         1 <0>         0.0498
     41 H14      16.7225  -44.4197   -3.0117 H         1 <0>         0.0350
     42 H15      16.2853  -46.0032   -2.3735 H         1 <0>         0.0764
     43 H16      17.2625  -45.4212   -5.2353 H         1 <0>         0.0216
     44 H17      16.8105  -47.0173   -4.6360 H         1 <0>         0.0978
     45 H18      19.0481  -45.2540   -3.5036 H         1 <0>         0.0622
     46 H19      18.5996  -46.8270   -2.8523 H         1 <0>         0.1049
     47 H20      10.1346  -44.0594    0.5785 H         1 <0>         0.0297
     48 H21      10.5849  -42.5987   -0.2965 H         1 <0>         0.0380
     49 H22      10.6919  -43.8543   -3.2190 H         1 <0>         0.1001
     50 H23      11.8262  -42.7318   -2.4706 H         1 <0>         0.0512
     51 H24      20.6127  -46.9678   -4.3717 H         1 <0>         0.0945
     52 H25      19.2418  -47.8802   -5.0632 H         1 <0>         0.1148
     53 H26      12.2477  -44.3816   -0.6363 H         1 <0>         0.0364
     54 H27      12.4723  -44.7901   -4.2422 H         1 <0>         0.3683
     55 H28      19.2761  -45.1586   -5.8936 H         1 <0>         0.4557
     56 H29      19.1764  -46.5525   -6.7928 H         1 <0>         0.4831
     57 H30      20.6580  -45.9723   -6.3206 H         1 <0>         0.4532
@<TRIPOS>BOND
     1    1    2 ar
     2    1    4 ar
     3    2    5 ar
     4    3    4 ar
     5    3    6 ar
     6    3    7 1
     7    4   11 1
     8    5    6 ar
     9    5   26 1
    10    6   27 1
    11    7   23 1
    12    7   24 2
    13    8   12 1
    14    8   21 am
    15    8   25 2
    16    9   26 1
    17    9   27 1
    18   10   13 1
    19   11   20 1
    20   12   14 1
    21   13   17 1
    22   14   15 1
    23   15   16 1
    24   16   19 1
    25   17   20 1
    26   18   20 1
    27   18   21 1
    28   19   22 1
    29    1   28 1
    30    2   29 1
    31    9   30 1
    32    9   31 1
    33   10   32 1
    34   10   33 1
    35   10   34 1
    36   11   35 1
    37   11   36 1
    38   12   37 1
    39   12   38 1
    40   13   39 1
    41   13   40 1
    42   14   41 1
    43   14   42 1
    44   15   43 1
    45   15   44 1
    46   16   45 1
    47   16   46 1
    48   17   47 1
    49   17   48 1
    50   18   49 1
    51   18   50 1
    52   19   51 1
    53   19   52 1
    54   20   53 1
    55   21   54 1
    56   22   55 1
    57   22   56 1
    58   22   57 1
