@<TRIPOS>MOLECULE
AVX17680_0_1
   57    58     0     0     0
SMALL
USER_CHARGES

@<TRIPOS>ATOM
      1 C1        9.6690  -47.3341    0.0582 C.ar      1 <0>        -0.1603
      2 C2        9.1889  -47.8349    1.2713 C.ar      1 <0>        -0.1884
      3 C3       11.9702  -47.5587    0.8248 C.ar      1 <0>        -0.0751
      4 C4       11.0516  -47.1969   -0.1637 C.ar      1 <0>        -0.0436
      5 C5       10.1167  -48.1848    2.2308 C.ar      1 <0>         0.0305
      6 C6       11.4702  -48.0505    2.0135 C.ar      1 <0>         0.0703
      7 C7       13.4223  -47.4244    0.6158 C.2       1 <0>         0.9274
      8 C8       14.5728  -44.3942   -2.9246 C.2       1 <0>         0.6372
      9 C9       11.1673  -48.8540    4.0000 C.3       1 <0>         0.3197
     10 C10       9.0812  -42.2554   -0.6892 C.3       1 <0>        -0.0911
     11 C11      11.5205  -46.6503   -1.4921 C.3       1 <0>        -0.0434
     12 C12      15.7973  -45.0817   -3.5069 C.3       1 <0>        -0.1557
     13 C13      10.3321  -42.8891   -1.2802 C.3       1 <0>        -0.0882
     14 C14      16.3948  -46.1542   -2.5955 C.3       1 <0>        -0.0590
     15 C15      17.7093  -46.7214   -3.1439 C.3       1 <0>        -0.1121
     16 C16      17.5428  -47.2050   -4.5910 C.3       1 <0>        -0.1084
     17 C17      10.3127  -44.4185   -1.1195 C.3       1 <0>        -0.0711
     18 C18      12.0855  -44.5791   -2.9188 C.3       1 <0>         0.0896
     19 C19      18.8576  -47.5912   -5.2577 C.3       1 <0>         0.1052
     20 C20      11.6366  -45.1014   -1.5380 C.3       1 <0>        -0.0742
     21 N1       13.3998  -45.0355   -3.3102 N.am      1 <0>        -0.5267
     22 N2       18.6495  -47.8927   -6.6964 N.4       1 <0>        -0.8432
     23 O1       14.0456  -48.3692   -0.0030 O.co2     1 <0>        -0.7614
     24 O2       14.0214  -46.3666    1.0589 O.co2     1 <0>        -0.8425
     25 O3       14.6364  -43.3845   -2.2200 O.2       1 <0>        -0.6812
     26 O4        9.8379  -48.6875    3.4646 O.3       1 <0>        -0.3723
     27 O5       12.2081  -48.4522    3.0842 O.3       1 <0>        -0.3022
     28 H1        8.9601  -47.0501   -0.7160 H         1 <0>         0.1135
     29 H2        8.1236  -47.9424    1.4465 H         1 <0>         0.0809
     30 H3       11.2570  -48.2521    4.9148 H         1 <0>         0.0569
     31 H4       11.3094  -49.9140    4.2546 H         1 <0>         0.0668
     32 H5        8.9824  -42.4989    0.3734 H         1 <0>         0.0263
     33 H6        9.1084  -41.1612   -0.7928 H         1 <0>         0.0345
     34 H7        8.1889  -42.6285   -1.2056 H         1 <0>         0.0264
     35 H8       12.4801  -47.1067   -1.7670 H         1 <0>         0.1012
     36 H9       10.8050  -47.0051   -2.2466 H         1 <0>         0.0414
     37 H10      15.5418  -45.5166   -4.4827 H         1 <0>         0.0633
     38 H11      16.5501  -44.2971   -3.6764 H         1 <0>         0.0812
     39 H12      10.3996  -42.6257   -2.3419 H         1 <0>         0.0550
     40 H13      11.2071  -42.4559   -0.7803 H         1 <0>         0.0498
     41 H14      16.5862  -45.7009   -1.6124 H         1 <0>         0.0350
     42 H15      15.6746  -46.9708   -2.4410 H         1 <0>         0.0764
     43 H16      18.0355  -47.5606   -2.5167 H         1 <0>         0.0216
     44 H17      18.4905  -45.9512   -3.0900 H         1 <0>         0.0978
     45 H18      16.8856  -48.0875   -4.6042 H         1 <0>         0.0622
     46 H19      17.0409  -46.4269   -5.1802 H         1 <0>         0.1049
     47 H20       9.4968  -44.8245   -1.7348 H         1 <0>         0.0297
     48 H21      10.0740  -44.6694   -0.0782 H         1 <0>         0.0380
     49 H22      11.3859  -44.9128   -3.6957 H         1 <0>         0.1001
     50 H23      12.1002  -43.4805   -2.9441 H         1 <0>         0.0512
     51 H24      19.6007  -46.7867   -5.1968 H         1 <0>         0.0945
     52 H25      19.2688  -48.5015   -4.8098 H         1 <0>         0.1148
     53 H26      12.4089  -44.7834   -0.8213 H         1 <0>         0.0364
     54 H27      13.4681  -45.8665   -3.8965 H         1 <0>         0.3683
     55 H28      17.7307  -47.5632   -7.0124 H         1 <0>         0.4557
     56 H29      18.6988  -48.9058   -6.8766 H         1 <0>         0.4831
     57 H30      19.3638  -47.4345   -7.2737 H         1 <0>         0.4532
@<TRIPOS>BOND
     1    1    2 ar
     2    1    4 ar
     3    2    5 ar
     4    3    4 ar
     5    3    6 ar
     6    3    7 1
     7    4   11 1
     8    5    6 ar
     9    5   26 1
    10    6   27 1
    11    7   23 1
    12    7   24 2
    13    8   12 1
    14    8   21 am
    15    8   25 2
    16    9   26 1
    17    9   27 1
    18   10   13 1
    19   11   20 1
    20   12   14 1
    21   13   17 1
    22   14   15 1
    23   15   16 1
    24   16   19 1
    25   17   20 1
    26   18   20 1
    27   18   21 1
    28   19   22 1
    29    1   28 1
    30    2   29 1
    31    9   30 1
    32    9   31 1
    33   10   32 1
    34   10   33 1
    35   10   34 1
    36   11   35 1
    37   11   36 1
    38   12   37 1
    39   12   38 1
    40   13   39 1
    41   13   40 1
    42   14   41 1
    43   14   42 1
    44   15   43 1
    45   15   44 1
    46   16   45 1
    47   16   46 1
    48   17   47 1
    49   17   48 1
    50   18   49 1
    51   18   50 1
    52   19   51 1
    53   19   52 1
    54   20   53 1
    55   21   54 1
    56   22   55 1
    57   22   56 1
    58   22   57 1
