@<TRIPOS>MOLECULE
AVX17587_2_26
   59    62     0     0     0
SMALL
USER_CHARGES

@<TRIPOS>ATOM
      1 C1        6.8692  -42.2487    1.0345 C.ar      1 <0>        -0.1342
      2 C2        6.9843  -43.2818    1.9790 C.ar      1 <0>        -0.1336
      3 C3        7.7481  -42.1739   -0.0478 C.ar      1 <0>        -0.1250
      4 C4        7.9803  -44.2541    1.8550 C.ar      1 <0>        -0.1121
      5 C5       13.2415  -46.1897    1.3000 C.ar      1 <0>        -0.1704
      6 C6       14.2619  -47.0586    0.9060 C.ar      1 <0>        -0.1562
      7 C7       11.5478  -47.7874    0.5888 C.ar      1 <0>        -0.0701
      8 C8        8.7400  -43.1355   -0.1563 C.ar      1 <0>        -0.0777
      9 C9        8.8595  -44.1681    0.7858 C.ar      1 <0>        -0.0761
     10 C10      11.8923  -46.5519    1.1424 C.ar      1 <0>        -0.0703
     11 C11      13.8949  -48.2724    0.3621 C.ar      1 <0>         0.0179
     12 C12      12.5742  -48.6270    0.2079 C.ar      1 <0>         0.0617
     13 C13      10.1426  -48.1889    0.4139 C.2       1 <0>         0.9218
     14 C14      12.7609  -44.6172   -2.0235 C.2       1 <0>         0.6512
     15 C15       9.7408  -43.2952   -1.2624 C.3       1 <0>        -0.0363
     16 C16      13.8111  -50.2450   -0.5229 C.3       1 <0>         0.3190
     17 C17       9.9781  -45.1392    0.3867 C.3       1 <0>        -0.0243
     18 C18      10.7743  -44.2080   -0.5668 C.3       1 <0>         0.0717
     19 C19      10.8296  -45.5806    1.5823 C.3       1 <0>        -0.0370
     20 C20      13.2763  -45.6053   -3.0571 C.3       1 <0>        -0.1654
     21 C21      14.7219  -45.3531   -3.4833 C.3       1 <0>        -0.0755
     22 C22      15.7141  -45.5711   -2.3354 C.3       1 <0>        -0.0921
     23 C23      17.1601  -45.4559   -2.8282 C.3       1 <0>        -0.1198
     24 C24      17.4688  -46.3557   -4.0180 C.3       1 <0>         0.1060
     25 N1       11.5112  -44.9848   -1.5454 N.am      1 <0>        -0.5298
     26 N2       17.0862  -47.7584   -3.7267 N.4       1 <0>        -0.8417
     27 O1        9.5120  -48.6900    1.4198 O.co2     1 <0>        -0.8121
     28 O2        9.5902  -48.0262   -0.7393 O.co2     1 <0>        -0.7861
     29 O3       13.3814  -43.6131   -1.6849 O.2       1 <0>        -0.5843
     30 O4       14.7447  -49.2411   -0.0752 O.3       1 <0>        -0.3676
     31 O5       12.4319  -49.8619   -0.3456 O.3       1 <0>        -0.3075
     32 H1        6.0843  -41.5049    1.1439 H         1 <0>         0.1213
     33 H2        6.2867  -43.3291    2.8113 H         1 <0>         0.1276
     34 H3        7.6510  -41.3808   -0.7835 H         1 <0>         0.1266
     35 H4        8.0511  -45.0575    2.5823 H         1 <0>         0.1355
     36 H5       13.5018  -45.2262    1.7315 H         1 <0>         0.1218
     37 H6       15.3034  -46.7833    1.0256 H         1 <0>         0.1293
     38 H7        9.3044  -43.7144   -2.1340 H         1 <0>         0.0478
     39 H8       10.2201  -42.3126   -1.5037 H         1 <0>         0.0718
     40 H9       13.9877  -50.4378   -1.5879 H         1 <0>         0.0614
     41 H10      13.9948  -51.1693    0.0389 H         1 <0>         0.0390
     42 H11       9.5512  -45.9683   -0.1102 H         1 <0>         0.0450
     43 H12      11.4895  -43.6083   -0.0239 H         1 <0>         0.1376
     44 H13      10.1862  -46.0515    2.3352 H         1 <0>         0.0451
     45 H14      11.2953  -44.7198    2.0756 H         1 <0>         0.1126
     46 H15      13.1666  -46.6260   -2.6698 H         1 <0>         0.0814
     47 H16      12.6273  -45.5135   -3.9371 H         1 <0>         0.0437
     48 H17      14.9676  -46.0440   -4.2990 H         1 <0>         0.0683
     49 H18      14.8297  -44.3367   -3.8831 H         1 <0>         0.0850
     50 H19      15.5544  -46.5648   -1.8971 H         1 <0>         0.0064
     51 H20      15.5295  -44.8367   -1.5449 H         1 <0>         0.0623
     52 H21      17.3538  -44.4177   -3.1278 H         1 <0>         0.0749
     53 H22      17.8482  -45.6807   -2.0039 H         1 <0>         0.1167
     54 H23      16.9242  -46.0529   -4.9172 H         1 <0>         0.1036
     55 H24      18.5417  -46.3637   -4.2312 H         1 <0>         0.1122
     56 H25      11.0916  -45.8401   -1.8979 H         1 <0>         0.3015
     57 H26      16.4864  -47.8130   -2.8955 H         1 <0>         0.4614
     58 H27      17.9154  -48.3380   -3.5543 H         1 <0>         0.4624
     59 H28      16.5721  -48.1707   -4.5130 H         1 <0>         0.4540
@<TRIPOS>BOND
     1    1    2 ar
     2    1    3 ar
     3    2    4 ar
     4    3    8 ar
     5    4    9 ar
     6    5    6 ar
     7    5   10 ar
     8    6   11 ar
     9    7   10 ar
    10    7   12 ar
    11    7   13 1
    12    8    9 ar
    13    8   15 1
    14    9   17 1
    15   10   19 1
    16   11   12 ar
    17   11   30 1
    18   12   31 1
    19   13   27 1
    20   13   28 2
    21   14   20 1
    22   14   25 am
    23   14   29 2
    24   15   18 1
    25   16   30 1
    26   16   31 1
    27   17   18 1
    28   17   19 1
    29   18   25 1
    30   20   21 1
    31   21   22 1
    32   22   23 1
    33   23   24 1
    34   24   26 1
    35    1   32 1
    36    2   33 1
    37    3   34 1
    38    4   35 1
    39    5   36 1
    40    6   37 1
    41   15   38 1
    42   15   39 1
    43   16   40 1
    44   16   41 1
    45   17   42 1
    46   18   43 1
    47   19   44 1
    48   19   45 1
    49   20   46 1
    50   20   47 1
    51   21   48 1
    52   21   49 1
    53   22   50 1
    54   22   51 1
    55   23   52 1
    56   23   53 1
    57   24   54 1
    58   24   55 1
    59   25   56 1
    60   26   57 1
    61   26   58 1
    62   26   59 1
