@<TRIPOS>MOLECULE
AVX101121_0_10
   67    70     0     0     0
SMALL
USER_CHARGES

@<TRIPOS>ATOM
      1 C1       21.9721  -45.2605    1.3738 C.ar      1 <0>        -0.1098
      2 C2       21.8721  -43.9600    1.8648 C.ar      1 <0>        -0.1106
      3 C3       23.2646  -38.8069   -6.5427 C.ar      1 <0>        -0.1176
      4 C4       22.8543  -45.5490    0.3314 C.ar      1 <0>        -0.1177
      5 C5       22.6538  -42.9430    1.3155 C.ar      1 <0>        -0.1131
      6 C6       23.9382  -39.7477   -5.7626 C.ar      1 <0>        -0.1710
      7 C7       24.9989  -43.8947   -7.1070 C.ar      1 <0>        -0.0796
      8 C8       27.2564  -43.0771   -6.8397 C.ar      1 <0>        -0.0962
      9 C9       22.1997  -38.0847   -6.0024 C.ar      1 <0>        -0.2012
     10 C10      24.8051  -43.0107   -8.1686 C.ar      1 <0>        -0.1622
     11 C11      27.0626  -42.1932   -7.9014 C.ar      1 <0>        -0.2051
     12 C12      24.5422  -44.8100   -1.2831 C.ar      1 <0>        -0.0743
     13 C13      24.3416  -42.2039   -0.2992 C.ar      1 <0>        -0.0764
     14 C14      23.6488  -44.5376   -0.2335 C.ar      1 <0>        -0.0321
     15 C15      23.5471  -43.2152    0.2658 C.ar      1 <0>        -0.0331
     16 C16      25.3240  -43.7929   -1.8325 C.ar      1 <0>        -0.1392
     17 C17      22.4818  -39.2443   -3.9019 C.ar      1 <0>        -0.0817
     18 C18      26.2245  -43.9279   -6.4426 C.ar      1 <0>        -0.1789
     19 C19      23.5467  -39.9665   -4.4422 C.ar      1 <0>        -0.1441
     20 C20      25.2238  -42.4924   -1.3414 C.ar      1 <0>        -0.1138
     21 C21      25.8369  -42.1599   -8.5659 C.ar      1 <0>         0.1480
     22 C22      21.8084  -38.3035   -4.6820 C.ar      1 <0>         0.1399
     23 C23      26.2369  -44.1199   -2.9203 C.2       1 <0>         0.6525
     24 C24      22.0636  -39.4722   -2.5048 C.2       1 <0>         0.9134
     25 C25      26.1029  -39.3102   -3.2919 C.3       1 <0>         0.0612
     26 C26      24.4173  -41.4045  -10.3175 C.3       1 <0>         0.1066
     27 C27      21.0865  -36.4221   -3.4141 C.3       1 <0>         0.1087
     28 C28      26.4332  -44.8795   -5.3000 C.3       1 <0>         0.1416
     29 C29      24.2894  -40.9848   -3.6270 C.3       1 <0>         0.1743
     30 C30      26.0496  -41.3847   -1.9122 C.3       1 <0>         0.1433
     31 N1       25.6620  -44.5030   -4.1364 N.am      1 <0>        -0.5615
     32 N2       25.2451  -40.3649   -2.6394 N.4       1 <0>        -0.6743
     33 O1       21.1811  -38.6898   -1.9916 O.co2     1 <0>        -0.8309
     34 O2       27.4661  -44.0735   -2.7451 O.2       1 <0>        -0.5986
     35 O3       22.5979  -40.4442   -1.8536 O.co2     1 <0>        -0.7663
     36 O4       25.6470  -41.2985   -9.6025 O.3       1 <0>        -0.3166
     37 O5       20.7654  -37.5871   -4.1738 O.3       1 <0>        -0.2875
     38 H1       21.3628  -46.0518    1.8014 H         1 <0>         0.1436
     39 H2       21.1845  -43.7359    2.6756 H         1 <0>         0.1452
     40 H3       23.5694  -38.6366   -7.5708 H         1 <0>         0.1262
     41 H4       22.9158  -46.5728   -0.0363 H         1 <0>         0.1421
     42 H5       22.5587  -41.9338    1.7152 H         1 <0>         0.1446
     43 H6       24.7665  -40.3051   -6.1931 H         1 <0>         0.1108
     44 H7       24.1897  -44.5539   -6.8042 H         1 <0>         0.1428
     45 H8       28.2145  -43.0953   -6.3273 H         1 <0>         0.1247
     46 H9       21.6796  -37.3533   -6.6158 H         1 <0>         0.1351
     47 H10      23.8483  -42.9888   -8.6830 H         1 <0>         0.1572
     48 H11      27.8699  -41.5323   -8.2052 H         1 <0>         0.1489
     49 H12      24.6278  -45.8243   -1.6747 H         1 <0>         0.1501
     50 H13      24.2726  -41.1825    0.0767 H         1 <0>         0.1489
     51 H14      26.7316  -39.8058   -4.0348 H         1 <0>         0.0999
     52 H15      25.4386  -38.5813   -3.7613 H         1 <0>         0.1769
     53 H16      26.7088  -38.8425   -2.5132 H         1 <0>         0.0795
     54 H17      24.3951  -40.6604  -11.1176 H         1 <0>         0.0768
     55 H18      23.5814  -41.2422   -9.6323 H         1 <0>         0.0272
     56 H19      24.3433  -42.4064  -10.7507 H         1 <0>         0.0563
     57 H20      20.1659  -35.9449   -3.0682 H         1 <0>         0.0742
     58 H21      21.6577  -35.7265   -4.0342 H         1 <0>         0.0186
     59 H22      21.6881  -36.7163   -2.5513 H         1 <0>         0.0331
     60 H23      26.1409  -45.8973   -5.5854 H         1 <0>         0.0799
     61 H24      27.4873  -44.9154   -5.0059 H         1 <0>         0.0589
     62 H25      23.5999  -41.6093   -3.0486 H         1 <0>         0.0769
     63 H26      24.8828  -41.6488   -4.2660 H         1 <0>         0.1438
     64 H27      26.5962  -40.8449   -1.1281 H         1 <0>         0.1310
     65 H28      26.7901  -41.7656   -2.6280 H         1 <0>         0.0993
     66 H29      24.6529  -44.5846   -4.2053 H         1 <0>         0.3131
     67 H30      24.6621  -39.8707   -1.9433 H         1 <0>         0.4384
@<TRIPOS>BOND
     1    1    2 ar
     2    1    4 ar
     3    2    5 ar
     4    3    6 ar
     5    3    9 ar
     6    4   14 ar
     7    5   15 ar
     8    6   19 ar
     9    7   10 ar
    10    7   18 ar
    11    8   11 ar
    12    8   18 ar
    13    9   22 ar
    14   10   21 ar
    15   11   21 ar
    16   12   14 ar
    17   12   16 ar
    18   13   15 ar
    19   13   20 ar
    20   14   15 ar
    21   16   20 ar
    22   16   23 1
    23   17   19 ar
    24   17   22 ar
    25   17   24 1
    26   18   28 1
    27   19   29 1
    28   20   30 1
    29   21   36 1
    30   22   37 1
    31   23   31 am
    32   23   34 2
    33   24   33 1
    34   24   35 2
    35   25   32 1
    36   26   36 1
    37   27   37 1
    38   28   31 1
    39   29   32 1
    40   30   32 1
    41    1   38 1
    42    2   39 1
    43    3   40 1
    44    4   41 1
    45    5   42 1
    46    6   43 1
    47    7   44 1
    48    8   45 1
    49    9   46 1
    50   10   47 1
    51   11   48 1
    52   12   49 1
    53   13   50 1
    54   25   51 1
    55   25   52 1
    56   25   53 1
    57   26   54 1
    58   26   55 1
    59   26   56 1
    60   27   57 1
    61   27   58 1
    62   27   59 1
    63   28   60 1
    64   28   61 1
    65   29   62 1
    66   29   63 1
    67   30   64 1
    68   30   65 1
    69   31   66 1
    70   32   67 1
