@<TRIPOS>MOLECULE
AVX101119_0_1
   64    67     0     0     0
SMALL
USER_CHARGES

@<TRIPOS>ATOM
      1 C1       22.0122  -36.9385   -5.7891 C.ar      1 <0>        -0.1177
      2 C2       22.7530  -38.0896   -5.5022 C.ar      1 <0>        -0.1727
      3 C3       21.4659  -42.0068   -7.2382 C.ar      1 <0>        -0.0812
      4 C4       23.7260  -41.4762   -7.9080 C.ar      1 <0>        -0.0978
      5 C5       21.2123  -36.3518   -4.8018 C.ar      1 <0>        -0.2027
      6 C6       20.9925  -40.9112   -7.9631 C.ar      1 <0>        -0.1616
      7 C7       23.2526  -40.3807   -8.6331 C.ar      1 <0>        -0.2041
      8 C8       23.3243  -43.9193   -2.0613 C.ar      1 <0>        -0.0955
      9 C9       24.3870  -41.6724   -0.6983 C.ar      1 <0>        -0.0981
     10 C10      24.1097  -42.9837   -2.7388 C.ar      1 <0>        -0.1245
     11 C11      21.8939  -38.0671   -3.2406 C.ar      1 <0>        -0.0830
     12 C12      22.8326  -42.2893   -7.2105 C.ar      1 <0>        -0.1810
     13 C13      22.6938  -38.6539   -4.2279 C.ar      1 <0>        -0.1422
     14 C14      24.6381  -41.8666   -2.0613 C.ar      1 <0>        -0.1033
     15 C15      23.0884  -43.7258   -0.7491 C.ar      1 <0>         0.0788
     16 C16      23.6085  -42.6110   -0.0527 C.ar      1 <0>         0.0781
     17 C17      21.8858  -40.0982   -8.6606 C.ar      1 <0>         0.1476
     18 C18      21.1532  -36.9160   -3.5275 C.ar      1 <0>         0.1430
     19 C19      24.3671  -43.1897   -4.1606 C.2       1 <0>         0.6517
     20 C20      21.8278  -38.6605   -1.8901 C.2       1 <0>         0.9128
     21 C21      22.4660  -43.7906    1.3563 C.3       1 <0>         0.3201
     22 C22      25.6180  -38.5888   -3.7970 C.3       1 <0>         0.0660
     23 C23      22.3777  -38.2942  -10.1315 C.3       1 <0>         0.1066
     24 C24      19.7077  -35.1097   -2.9372 C.3       1 <0>         0.1085
     25 C25      23.3420  -43.4686   -6.4304 C.3       1 <0>         0.1398
     26 C26      23.5013  -39.8920   -3.9481 C.3       1 <0>         0.1724
     27 C27      25.4790  -40.8626   -2.7830 C.3       1 <0>         0.1454
     28 N1       23.2521  -43.2467   -5.0028 N.am      1 <0>        -0.5603
     29 N2       24.7379  -39.6160   -3.1310 N.4       1 <0>        -0.6751
     30 O1       21.1027  -38.0783   -0.9960 O.co2     1 <0>        -0.8358
     31 O2       25.5313  -43.3267   -4.5784 O.2       1 <0>        -0.5908
     32 O3       22.4982  -39.7371   -1.6589 O.co2     1 <0>        -0.7634
     33 O4       22.3552  -44.5036    0.1031 O.3       1 <0>        -0.3223
     34 O5       23.2606  -42.5888    1.2646 O.3       1 <0>        -0.3199
     35 O6       21.4229  -39.0300   -9.3684 O.3       1 <0>        -0.3145
     36 O7       20.3653  -36.3268   -2.5776 O.3       1 <0>        -0.2867
     37 H1       22.0583  -36.4990   -6.7814 H         1 <0>         0.1247
     38 H2       23.3731  -38.5390   -6.2784 H         1 <0>         0.1107
     39 H3       20.7629  -42.6349   -6.6976 H         1 <0>         0.1430
     40 H4       24.7928  -41.6881   -7.8916 H         1 <0>         0.1246
     41 H5       20.6378  -35.4551   -5.0323 H         1 <0>         0.1367
     42 H6       19.9270  -40.6956   -7.9814 H         1 <0>         0.1580
     43 H7       23.9537  -39.7505   -9.1733 H         1 <0>         0.1494
     44 H8       22.9093  -44.7867   -2.5695 H         1 <0>         0.1748
     45 H9       24.7881  -40.8153   -0.1631 H         1 <0>         0.1722
     46 H10      21.4591  -43.5163    1.6983 H         1 <0>         0.0879
     47 H11      22.9215  -44.4581    2.0974 H         1 <0>         0.0854
     48 H12      25.9799  -39.0192   -4.7361 H         1 <0>         0.1093
     49 H13      25.0124  -37.6945   -3.9763 H         1 <0>         0.1715
     50 H14      26.4467  -38.3699   -3.1208 H         1 <0>         0.0773
     51 H15      21.8762  -37.4696  -10.6468 H         1 <0>         0.0752
     52 H16      22.8554  -38.9614  -10.8592 H         1 <0>         0.0265
     53 H17      23.1357  -37.8878   -9.4563 H         1 <0>         0.0572
     54 H18      19.1131  -34.7463   -2.0912 H         1 <0>         0.0750
     55 H19      19.0622  -35.2880   -3.8013 H         1 <0>         0.0186
     56 H20      20.4608  -34.3614   -3.1953 H         1 <0>         0.0338
     57 H21      22.7670  -44.3715   -6.6712 H         1 <0>         0.0842
     58 H22      24.3900  -43.6807   -6.6738 H         1 <0>         0.0615
     59 H23      22.9140  -40.6295   -3.3904 H         1 <0>         0.0767
     60 H24      23.8385  -40.3694   -4.8784 H         1 <0>         0.1466
     61 H25      26.3399  -40.5515   -2.1782 H         1 <0>         0.1293
     62 H26      25.8688  -41.2724   -3.7269 H         1 <0>         0.1054
     63 H27      22.3209  -43.1918   -4.5996 H         1 <0>         0.3134
     64 H28      24.4101  -39.1844   -2.2475 H         1 <0>         0.4345
@<TRIPOS>BOND
     1    1    2 ar
     2    1    5 ar
     3    2   13 ar
     4    3    6 ar
     5    3   12 ar
     6    4    7 ar
     7    4   12 ar
     8    5   18 ar
     9    6   17 ar
    10    7   17 ar
    11    8   10 ar
    12    8   15 ar
    13    9   14 ar
    14    9   16 ar
    15   10   14 ar
    16   10   19 1
    17   11   13 ar
    18   11   18 ar
    19   11   20 1
    20   12   25 1
    21   13   26 1
    22   14   27 1
    23   15   16 ar
    24   15   33 1
    25   16   34 1
    26   17   35 1
    27   18   36 1
    28   19   28 am
    29   19   31 2
    30   20   30 1
    31   20   32 2
    32   21   33 1
    33   21   34 1
    34   22   29 1
    35   23   35 1
    36   24   36 1
    37   25   28 1
    38   26   29 1
    39   27   29 1
    40    1   37 1
    41    2   38 1
    42    3   39 1
    43    4   40 1
    44    5   41 1
    45    6   42 1
    46    7   43 1
    47    8   44 1
    48    9   45 1
    49   21   46 1
    50   21   47 1
    51   22   48 1
    52   22   49 1
    53   22   50 1
    54   23   51 1
    55   23   52 1
    56   23   53 1
    57   24   54 1
    58   24   55 1
    59   24   56 1
    60   25   57 1
    61   25   58 1
    62   26   59 1
    63   26   60 1
    64   27   61 1
    65   27   62 1
    66   28   63 1
    67   29   64 1
