@<TRIPOS>MOLECULE
AVX101140_0_3
   37    40     0     0     0
SMALL
USER_CHARGES

@<TRIPOS>ATOM
      1 C1       24.7727  -38.3103   -3.7857 C.ar      1 <0>        -0.1303
      2 C2       22.3059  -38.1725   -5.8238 C.ar      1 <0>        -0.2022
      3 C3       25.9583  -38.3531   -4.5228 C.ar      1 <0>        -0.1594
      4 C4       22.0221  -37.4952   -7.0169 C.ar      1 <0>        -0.0326
      5 C5       20.6081  -35.8874   -5.8491 C.ar      1 <0>         0.0096
      6 C6       20.9049  -36.5741   -4.6896 C.ar      1 <0>        -0.2704
      7 C7       24.2550  -40.5774   -4.4594 C.ar      1 <0>        -0.0489
      8 C8       23.9197  -39.4186   -3.7585 C.ar      1 <0>        -0.1270
      9 C9       21.7337  -37.6938   -4.6592 C.ar      1 <0>         0.1477
     10 C10      26.3149  -39.5197   -5.1899 C.ar      1 <0>         0.0467
     11 C11      25.4470  -40.6259   -5.1861 C.ar      1 <0>         0.0601
     12 C12      21.1816  -36.3643   -7.0291 C.ar      1 <0>        -0.1076
     13 C13      20.4723  -36.3334   -3.3148 C.2       1 <0>         0.5177
     14 C14      21.1206  -37.4148   -2.4573 C.2       1 <0>         0.5960
     15 C15      23.3422  -41.7436   -4.4396 C.2       1 <0>         0.9164
     16 C16      27.9412  -40.8538   -6.1823 C.3       1 <0>         0.0909
     17 C17      26.7474  -41.5999   -6.8452 C.3       1 <0>         0.0892
     18 C18      22.6433  -39.3330   -2.9689 C.3       1 <0>         0.1522
     19 N1       21.8560  -38.1831   -3.3439 N.am      1 <0>        -0.3670
     20 O1       23.5640  -42.6878   -3.5932 O.co2     1 <0>        -0.8260
     21 O2       19.7493  -35.4669   -2.8871 O.2       1 <0>        -0.4735
     22 O3       20.9534  -37.4851   -1.2580 O.2       1 <0>        -0.4557
     23 O4       22.3614  -41.7696   -5.2699 O.co2     1 <0>        -0.7877
     24 O5       27.5187  -39.5234   -5.8491 O.3       1 <0>        -0.3349
     25 O6       25.7314  -41.7982   -5.8368 O.3       1 <0>        -0.2794
     26 Br1      20.8279  -35.4825   -8.6672 Br        1 <0>        -0.1100
     27 H1       24.5244  -37.4087   -3.2313 H         1 <0>         0.1125
     28 H2       22.9546  -39.0412   -5.8304 H         1 <0>         0.1542
     29 H3       26.6236  -37.4906   -4.5276 H         1 <0>         0.1283
     30 H4       22.4645  -37.8594   -7.9419 H         1 <0>         0.1400
     31 H5       19.9589  -35.0192   -5.8364 H         1 <0>         0.1548
     32 H6       28.3023  -41.3517   -5.3454 H         1 <0>         0.0486
     33 H7       28.7294  -40.7475   -6.9623 H         1 <0>         0.0567
     34 H8       26.3308  -41.0688   -7.7110 H         1 <0>         0.0505
     35 H9       27.0690  -42.5931   -7.1749 H         1 <0>         0.0700
     36 H10      22.0288  -40.2297   -3.1234 H         1 <0>         0.1211
     37 H11      22.8488  -39.2628   -1.8957 H         1 <0>         0.0494
@<TRIPOS>BOND
     1    1    3 ar
     2    1    8 ar
     3    2    4 ar
     4    2    9 ar
     5    3   10 ar
     6    4   12 ar
     7    5    6 ar
     8    5   12 ar
     9    6    9 ar
    10    6   13 1
    11    7    8 ar
    12    7   11 ar
    13    7   15 1
    14    8   18 1
    15    9   19 1
    16   10   11 ar
    17   10   24 1
    18   11   25 1
    19   12   26 1
    20   13   14 1
    21   13   21 2
    22   14   19 am
    23   14   22 2
    24   15   20 1
    25   15   23 2
    26   16   17 1
    27   16   24 1
    28   17   25 1
    29   18   19 1
    30    1   27 1
    31    2   28 1
    32    3   29 1
    33    4   30 1
    34    5   31 1
    35   16   32 1
    36   16   33 1
    37   17   34 1
    38   17   35 1
    39   18   36 1
    40   18   37 1
