@<TRIPOS>MOLECULE
AVX17715_0_4
   57    60     0     0     0
SMALL
USER_CHARGES

@<TRIPOS>ATOM
      1 C1       11.1925  -48.8820    5.4204 C.ar      1 <0>        -0.1087
      2 C2       11.9134  -49.7267    4.5764 C.ar      1 <0>        -0.1113
      3 C3       10.1036  -48.1648    4.9249 C.ar      1 <0>        -0.0981
      4 C4       11.5454  -49.8541    3.2369 C.ar      1 <0>        -0.0911
      5 C5       11.2444  -45.9757   -1.7431 C.ar      1 <0>        -0.1146
      6 C6        9.1292  -43.4106    1.2063 C.ar      1 <0>        -0.0900
      7 C7        7.9830  -44.8408   -0.3677 C.ar      1 <0>        -0.0715
      8 C8       11.9799  -45.3701   -2.7647 C.ar      1 <0>        -0.1351
      9 C9        9.5891  -42.6202    0.1530 C.ar      1 <0>        -0.1638
     10 C10       8.4430  -44.0503   -1.4210 C.ar      1 <0>        -0.2160
     11 C11       9.7355  -48.2921    3.5855 C.ar      1 <0>        -0.1309
     12 C12      13.2835  -46.4650   -0.5065 C.ar      1 <0>        -0.0865
     13 C13       8.3572  -44.5441    0.9119 C.ar      1 <0>        -0.1674
     14 C14      10.4564  -49.1368    2.7415 C.ar      1 <0>        -0.1062
     15 C15      11.8925  -46.5198   -0.6204 C.ar      1 <0>        -0.1438
     16 C16      13.3519  -45.3290   -2.6279 C.ar      1 <0>         0.0734
     17 C17      13.9863  -45.8616   -1.5290 C.ar      1 <0>         0.0843
     18 C18       9.2457  -42.9404   -1.1610 C.ar      1 <0>         0.1366
     19 C19       8.5949  -47.5309    3.0940 C.2       1 <0>         0.6633
     20 C20      13.9845  -47.0274    0.6591 C.2       1 <0>         0.9165
     21 C21      15.4830  -45.0315   -2.8526 C.3       1 <0>         0.3158
     22 C22      10.5071  -41.0450   -1.8487 C.3       1 <0>         0.1104
     23 C23       7.8309  -45.3716    2.0797 C.3       1 <0>         0.1448
     24 C24      10.0831  -49.2922    1.2966 C.3       1 <0>         0.1669
     25 C25      11.0615  -47.1574    0.4460 C.3       1 <0>         0.1804
     26 N1        8.8576  -46.2560    2.5823 N.am      1 <0>        -0.5591
     27 N2       11.0495  -48.6431    0.3720 N.4       1 <0>        -0.8258
     28 O1       14.1234  -46.2971    1.7105 O.co2     1 <0>        -0.6958
     29 O2        7.4482  -48.0054    3.1563 O.2       1 <0>        -0.6154
     30 O3       14.4361  -48.2313    0.5890 O.co2     1 <0>        -0.8531
     31 O4       14.2080  -44.7392   -3.5040 O.3       1 <0>        -0.3373
     32 O5       15.3376  -45.7155   -1.5912 O.3       1 <0>        -0.3002
     33 O6        9.6933  -42.1684   -2.1886 O.3       1 <0>        -0.3235
     34 H1       11.4793  -48.7823    6.4633 H         1 <0>         0.1483
     35 H2       12.7619  -50.2842    4.9623 H         1 <0>         0.1486
     36 H3        9.5501  -47.5091    5.5923 H         1 <0>         0.1500
     37 H4       12.1140  -50.5145    2.5877 H         1 <0>         0.1590
     38 H5       10.1612  -46.0224   -1.8248 H         1 <0>         0.1307
     39 H6        9.4012  -43.1542    2.2267 H         1 <0>         0.1316
     40 H7        7.3586  -45.7046   -0.5803 H         1 <0>         0.1506
     41 H8       11.4841  -44.9493   -3.6319 H         1 <0>         0.1516
     42 H9       10.2142  -41.7564    0.3613 H         1 <0>         0.1542
     43 H10       8.1731  -44.3055   -2.4422 H         1 <0>         0.1443
     44 H11      16.1124  -45.6400   -3.5118 H         1 <0>         0.0719
     45 H12      15.9821  -44.0719   -2.6764 H         1 <0>         0.0753
     46 H13      10.7963  -40.5155   -2.7598 H         1 <0>         0.0741
     47 H14      11.3974  -41.3866   -1.3147 H         1 <0>         0.0370
     48 H15       9.9344  -40.3728   -1.2056 H         1 <0>         0.0373
     49 H16       7.4882  -44.7460    2.9110 H         1 <0>         0.0590
     50 H17       6.9824  -45.9881    1.7654 H         1 <0>         0.0760
     51 H18      10.0360  -50.3485    1.0113 H         1 <0>         0.0752
     52 H19       9.1037  -48.8470    1.0910 H         1 <0>         0.1011
     53 H20      11.4271  -46.8996    1.4479 H         1 <0>         0.1056
     54 H21      10.0145  -46.8350    0.3848 H         1 <0>         0.0701
     55 H22       9.8047  -45.8931    2.6134 H         1 <0>         0.3180
     56 H23      11.9952  -48.9971    0.5692 H         1 <0>         0.5342
     57 H24      10.8383  -48.9300   -0.5933 H         1 <0>         0.4492
@<TRIPOS>BOND
     1    1    2 ar
     2    1    3 ar
     3    2    4 ar
     4    3   11 ar
     5    4   14 ar
     6    5    8 ar
     7    5   15 ar
     8    6    9 ar
     9    6   13 ar
    10    7   10 ar
    11    7   13 ar
    12    8   16 ar
    13    9   18 ar
    14   10   18 ar
    15   11   14 ar
    16   11   19 1
    17   12   15 ar
    18   12   17 ar
    19   12   20 1
    20   13   23 1
    21   14   24 1
    22   15   25 1
    23   16   17 ar
    24   16   31 1
    25   17   32 1
    26   18   33 1
    27   19   26 am
    28   19   29 2
    29   20   28 1
    30   20   30 2
    31   21   31 1
    32   21   32 1
    33   22   33 1
    34   23   26 1
    35   24   27 1
    36   25   27 1
    37    1   34 1
    38    2   35 1
    39    3   36 1
    40    4   37 1
    41    5   38 1
    42    6   39 1
    43    7   40 1
    44    8   41 1
    45    9   42 1
    46   10   43 1
    47   21   44 1
    48   21   45 1
    49   22   46 1
    50   22   47 1
    51   22   48 1
    52   23   49 1
    53   23   50 1
    54   24   51 1
    55   24   52 1
    56   25   53 1
    57   25   54 1
    58   26   55 1
    59   27   56 1
    60   27   57 1
