@<TRIPOS>MOLECULE
AVX38788_1_6
   67    70     0     0     0
SMALL
USER_CHARGES

@<TRIPOS>ATOM
      1 C1       10.7601  -49.0184    5.1418 C.ar      1 <0>        -0.1059
      2 C2       11.1597  -49.8614    4.1051 C.ar      1 <0>        -0.0978
      3 C3        9.6059  -48.2456    5.0072 C.ar      1 <0>        -0.1049
      4 C4       10.4050  -49.9318    2.9337 C.ar      1 <0>        -0.0856
      5 C5        9.9897  -45.5479   -1.1792 C.ar      1 <0>        -0.1266
      6 C6       10.9309  -44.9624   -2.0266 C.ar      1 <0>        -0.1508
      7 C7        8.8512  -48.3160    3.8358 C.ar      1 <0>        -0.1098
      8 C8       11.7354  -46.8510   -0.1268 C.ar      1 <0>        -0.0861
      9 C9        9.2508  -49.1591    2.7989 C.ar      1 <0>        -0.0906
     10 C10      10.3905  -46.4949   -0.2344 C.ar      1 <0>        -0.1819
     11 C11      12.2738  -45.3282   -1.9287 C.ar      1 <0>         0.0952
     12 C12      12.6791  -46.2555   -0.9647 C.ar      1 <0>         0.0798
     13 C13       7.6509  -47.4977    3.7212 C.2       1 <0>         0.6578
     14 C14      12.1573  -47.8460    0.8821 C.2       1 <0>         0.9202
     15 C15      17.7875  -44.4513   -4.5945 C.2       1 <0>         0.9097
     16 C16       6.8165  -42.5641    0.9121 C.3       1 <0>        -0.0933
     17 C17       6.0922  -42.9297    2.2251 C.3       1 <0>        -0.0944
     18 C18       7.3884  -43.9983    0.9197 C.3       1 <0>        -0.0858
     19 C19      14.8880  -45.7264   -1.4446 C.3       1 <0>         0.0882
     20 C20       7.1947  -43.9864    2.4509 C.3       1 <0>        -0.1174
     21 C21      14.4050  -45.4218   -2.8573 C.3       1 <0>         0.0992
     22 C22       8.3518  -48.7649   -0.9149 C.3       1 <0>         0.0994
     23 C23       8.4587  -49.2538    1.5278 C.3       1 <0>         0.1598
     24 C24       9.3560  -47.1084    0.6526 C.3       1 <0>         0.1860
     25 C25      16.6456  -45.2791   -3.9925 C.3       1 <0>        -0.1973
     26 C26       6.7176  -45.2760    3.0295 C.3       1 <0>         0.1013
     27 C27      15.3884  -44.5275   -3.5989 C.3       1 <0>        -0.0555
     28 N1        7.8070  -46.2139    3.1855 N.am      1 <0>        -0.5532
     29 N2        9.1154  -48.5492    0.3673 N.4       1 <0>        -0.7377
     30 O1       12.4133  -47.4411    2.0747 O.co2     1 <0>        -0.7322
     31 O2       18.8412  -45.0792   -4.8900 O.co2     1 <0>        -0.8473
     32 O3        6.5536  -47.9342    4.1078 O.2       1 <0>        -0.6217
     33 O4       12.2527  -49.0785    0.5286 O.co2     1 <0>        -0.8635
     34 O5       17.5201  -43.2221   -4.7338 O.co2     1 <0>        -0.8521
     35 O6       13.9864  -46.6304   -0.7972 O.3       1 <0>        -0.3001
     36 O7       13.1471  -44.7341   -2.8017 O.3       1 <0>        -0.3013
     37 H1       11.3479  -48.9630    6.0541 H         1 <0>         0.1390
     38 H2       12.0590  -50.4622    4.2100 H         1 <0>         0.1460
     39 H3        9.3052  -47.5919    5.8219 H         1 <0>         0.1424
     40 H4       10.7254  -50.5917    2.1317 H         1 <0>         0.1464
     41 H5        8.9443  -45.2627   -1.2663 H         1 <0>         0.1176
     42 H6       10.6091  -44.2321   -2.7654 H         1 <0>         0.1544
     43 H7        6.1423  -42.3558    0.0726 H         1 <0>         0.0510
     44 H8        7.5520  -41.7589    0.9834 H         1 <0>         0.0538
     45 H9        6.0963  -42.1234    2.9681 H         1 <0>         0.0681
     46 H10       5.0706  -43.3030    2.1155 H         1 <0>         0.0537
     47 H11       6.8151  -44.7408    0.3586 H         1 <0>         0.0469
     48 H12       8.4386  -44.0538    0.6093 H         1 <0>         0.0490
     49 H13      15.8727  -46.2055   -1.4653 H         1 <0>         0.0861
     50 H14      14.9653  -44.8171   -0.8345 H         1 <0>         0.0597
     51 H15       8.0621  -43.6127    3.0062 H         1 <0>         0.0575
     52 H16      14.2599  -46.3504   -3.4251 H         1 <0>         0.0597
     53 H17       7.3725  -48.2955   -0.8039 H         1 <0>         0.0612
     54 H18       8.9194  -48.3013   -1.7245 H         1 <0>         0.1141
     55 H19       8.2561  -49.8420   -1.0684 H         1 <0>         0.0682
     56 H20       8.3203  -50.2978    1.2253 H         1 <0>         0.0779
     57 H21       7.4658  -48.8059    1.6456 H         1 <0>         0.1050
     58 H22       9.6447  -47.0467    1.7100 H         1 <0>         0.1062
     59 H23       8.3864  -46.6043    0.5457 H         1 <0>         0.0664
     60 H24      17.0522  -45.7475   -3.0867 H         1 <0>         0.0216
     61 H25      16.3980  -46.0901   -4.6886 H         1 <0>         0.0357
     62 H26       5.9714  -45.7365    2.3750 H         1 <0>         0.0695
     63 H27       6.2715  -45.1175    4.0158 H         1 <0>         0.0539
     64 H28      14.8797  -44.1048   -4.4644 H         1 <0>         0.0642
     65 H29      15.6441  -43.7072   -2.9289 H         1 <0>         0.0641
     66 H30       8.7364  -45.8854    2.9443 H         1 <0>         0.3250
     67 H31      10.0351  -49.0017    0.2359 H         1 <0>         0.5323
@<TRIPOS>BOND
     1    1    2 ar
     2    1    3 ar
     3    2    4 ar
     4    3    7 ar
     5    4    9 ar
     6    5    6 ar
     7    5   10 ar
     8    6   11 ar
     9    7    9 ar
    10    7   13 1
    11    8   10 ar
    12    8   12 ar
    13    8   14 1
    14    9   23 1
    15   10   24 1
    16   11   12 ar
    17   11   36 1
    18   12   35 1
    19   13   28 am
    20   13   32 2
    21   14   30 1
    22   14   33 2
    23   15   25 1
    24   15   31 1
    25   15   34 2
    26   16   17 1
    27   16   18 1
    28   17   20 1
    29   18   20 1
    30   19   21 1
    31   19   35 1
    32   20   26 1
    33   21   27 1
    34   21   36 1
    35   22   29 1
    36   23   29 1
    37   24   29 1
    38   25   27 1
    39   26   28 1
    40    1   37 1
    41    2   38 1
    42    3   39 1
    43    4   40 1
    44    5   41 1
    45    6   42 1
    46   16   43 1
    47   16   44 1
    48   17   45 1
    49   17   46 1
    50   18   47 1
    51   18   48 1
    52   19   49 1
    53   19   50 1
    54   20   51 1
    55   21   52 1
    56   22   53 1
    57   22   54 1
    58   22   55 1
    59   23   56 1
    60   23   57 1
    61   24   58 1
    62   24   59 1
    63   25   60 1
    64   25   61 1
    65   26   62 1
    66   26   63 1
    67   27   64 1
    68   27   65 1
    69   28   66 1
    70   29   67 1
