@<TRIPOS>MOLECULE
AVX38783_1_7
   68    71     0     0     0
SMALL
USER_CHARGES

@<TRIPOS>ATOM
      1 C1       23.6350  -38.1721   -6.4533 C.ar      1 <0>        -0.1171
      2 C2       24.5389  -37.8045   -5.4568 C.ar      1 <0>        -0.1122
      3 C3       20.9792  -45.4898   -8.3418 C.2       1 <0>        -0.1962
      4 C4       23.8455  -39.3433   -7.1892 C.ar      1 <0>        -0.0959
      5 C5       25.6534  -38.6078   -5.1959 C.ar      1 <0>        -0.1349
      6 C6       26.5835  -43.5773   -1.8808 C.ar      1 <0>        -0.1511
      7 C7       25.9740  -44.6331   -1.2009 C.ar      1 <0>        -0.1491
      8 C8       22.3462  -45.4018   -7.9851 C.2       1 <0>        -0.1810
      9 C9       20.6935  -44.3433   -9.0534 C.2       1 <0>         0.2247
     10 C10      24.9601  -40.1465   -6.9284 C.ar      1 <0>        -0.1074
     11 C11      24.4607  -42.9813   -2.8790 C.ar      1 <0>        -0.0528
     12 C12      25.8641  -39.7789   -5.9316 C.ar      1 <0>        -0.1021
     13 C13      25.8266  -42.7493   -2.7147 C.ar      1 <0>        -0.2005
     14 C14      24.6058  -44.8607   -1.3569 C.ar      1 <0>         0.0965
     15 C15      23.8547  -44.0471   -2.2116 C.ar      1 <0>         0.0697
     16 C16      22.7984  -44.2078   -8.5043 C.2       1 <0>         0.1552
     17 C17      27.4450  -44.8310   -6.7118 C.2       1 <0>        -0.1477
     18 C18      27.7288  -43.5453   -6.4556 C.2       1 <0>        -0.2293
     19 C19      25.1564  -41.3635   -7.7121 C.2       1 <0>         0.6504
     20 C20      23.6580  -42.0907   -3.7473 C.2       1 <0>         0.9162
     21 C21      21.9890  -44.7459    3.0383 C.2       1 <0>         0.9099
     22 C22      22.1054  -45.5498   -2.0441 C.3       1 <0>         0.0868
     23 C23      22.6304  -45.9235   -0.6626 C.3       1 <0>         0.0979
     24 C24      27.0715  -40.6237   -5.6305 C.3       1 <0>         0.1410
     25 C25      26.5068  -41.6178   -3.4163 C.3       1 <0>         0.1917
     26 C26      24.1333  -43.5209   -8.4849 C.3       1 <0>         0.0598
     27 C27      27.7796  -42.9589   -5.0822 C.3       1 <0>         0.1319
     28 C28      22.4869  -45.5474    1.8264 C.3       1 <0>        -0.1952
     29 C29      22.0689  -45.0442    0.4575 C.3       1 <0>        -0.0557
     30 N1       24.0850  -42.2615   -7.7690 N.am      1 <0>        -0.5524
     31 N2       26.7417  -41.8809   -4.8622 N.4       1 <0>        -0.6775
     32 O1       23.1349  -41.0302   -3.2326 O.co2     1 <0>        -0.7947
     33 O2       22.2743  -45.2150    4.1746 O.co2     1 <0>        -0.8488
     34 O3       26.2423  -41.5815   -8.2780 O.2       1 <0>        -0.5395
     35 O4       23.5135  -42.4106   -4.9839 O.co2     1 <0>        -0.8368
     36 O5       21.3537  -43.6882    2.7413 O.co2     1 <0>        -0.8535
     37 O6       21.7971  -43.5566   -9.1571 O.3       1 <0>        -0.4194
     38 O7       22.5129  -44.2305   -2.4189 O.3       1 <0>        -0.2900
     39 O8       24.0647  -45.8932   -0.6363 O.3       1 <0>        -0.3020
     40 H1       22.7672  -37.5464   -6.6570 H         1 <0>         0.1424
     41 H2       24.3752  -36.8920   -4.8847 H         1 <0>         0.1449
     42 H3       20.2886  -46.2889   -8.1094 H         1 <0>         0.1897
     43 H4       23.1344  -39.6187   -7.9638 H         1 <0>         0.1528
     44 H5       26.3519  -38.3120   -4.4174 H         1 <0>         0.1366
     45 H6       27.6508  -43.4111   -1.7573 H         1 <0>         0.0947
     46 H7       26.5732  -45.2797   -0.5610 H         1 <0>         0.1495
     47 H8       22.9267  -46.1208   -7.4198 H         1 <0>         0.1721
     48 H9       19.8011  -43.9583   -9.5279 H         1 <0>         0.0436
     49 H10      27.4280  -45.1986   -7.7327 H         1 <0>         0.1306
     50 H11      27.2273  -45.5354   -5.9155 H         1 <0>         0.1330
     51 H12      27.9448  -42.8819   -7.2899 H         1 <0>         0.1350
     52 H13      22.4948  -46.2459   -2.8052 H         1 <0>         0.0854
     53 H14      21.0035  -45.5947   -2.0888 H         1 <0>         0.0586
     54 H15      22.3382  -46.9960   -0.4383 H         1 <0>         0.0606
     55 H16      27.5732  -40.9442   -6.5512 H         1 <0>         0.1557
     56 H17      27.7995  -40.0681   -5.0290 H         1 <0>         0.1479
     57 H18      25.9139  -40.6912   -3.3596 H         1 <0>         0.1467
     58 H19      27.4901  -41.4071   -2.9764 H         1 <0>         0.0748
     59 H20      24.8872  -44.1580   -8.0049 H         1 <0>         0.0984
     60 H21      24.4831  -43.3133   -9.5015 H         1 <0>         0.0580
     61 H22      28.7519  -42.4880   -4.9085 H         1 <0>         0.0844
     62 H23      27.6124  -43.7112   -4.3035 H         1 <0>         0.1175
     63 H24      22.0886  -46.5649    1.9454 H         1 <0>         0.0214
     64 H25      23.5807  -45.6259    1.8831 H         1 <0>         0.0349
     65 H26      22.3933  -44.0176    0.2844 H         1 <0>         0.0629
     66 H27      20.9822  -45.0670    0.3715 H         1 <0>         0.0634
     67 H28      23.2433  -42.0633   -7.2363 H         1 <0>         0.2937
     68 H29      25.8604  -42.2412   -5.2632 H         1 <0>         0.4219
@<TRIPOS>BOND
     1    1    2 ar
     2    1    4 ar
     3    2    5 ar
     4    3    8 1
     5    3    9 2
     6    4   10 ar
     7    5   12 ar
     8    6    7 ar
     9    6   13 ar
    10    7   14 ar
    11    8   16 2
    12    9   37 1
    13   10   12 ar
    14   10   19 1
    15   11   13 ar
    16   11   15 ar
    17   11   20 1
    18   12   24 1
    19   13   25 1
    20   14   15 ar
    21   14   39 1
    22   15   38 1
    23   16   26 1
    24   16   37 1
    25   17   18 2
    26   18   27 1
    27   19   30 am
    28   19   34 2
    29   20   32 1
    30   20   35 2
    31   21   28 1
    32   21   33 1
    33   21   36 2
    34   22   23 1
    35   22   38 1
    36   23   29 1
    37   23   39 1
    38   24   31 1
    39   25   31 1
    40   26   30 1
    41   27   31 1
    42   28   29 1
    43    1   40 1
    44    2   41 1
    45    3   42 1
    46    4   43 1
    47    5   44 1
    48    6   45 1
    49    7   46 1
    50    8   47 1
    51    9   48 1
    52   17   49 1
    53   17   50 1
    54   18   51 1
    55   22   52 1
    56   22   53 1
    57   23   54 1
    58   24   55 1
    59   24   56 1
    60   25   57 1
    61   25   58 1
    62   26   59 1
    63   26   60 1
    64   27   61 1
    65   27   62 1
    66   28   63 1
    67   28   64 1
    68   29   65 1
    69   29   66 1
    70   30   67 1
    71   31   68 1
