@<TRIPOS>MOLECULE
AVX38784_1_21
   66    68     0     0     0
SMALL
USER_CHARGES

@<TRIPOS>ATOM
      1 C1       21.7049  -38.2654   -6.2105 C.ar      1 <0>        -0.1045
      2 C2       22.4989  -37.6631   -5.2339 C.ar      1 <0>        -0.1135
      3 C3       22.2360  -39.2701   -7.0196 C.ar      1 <0>        -0.0891
      4 C4       23.8242  -38.0654   -5.0663 C.ar      1 <0>        -0.1073
      5 C5       26.1959  -42.6293   -2.0531 C.ar      1 <0>        -0.1236
      6 C6       25.8483  -43.8342   -1.4415 C.ar      1 <0>        -0.1496
      7 C7       23.5613  -39.6724   -6.8520 C.ar      1 <0>        -0.0916
      8 C8       23.9876  -42.4804   -3.0278 C.ar      1 <0>        -0.0778
      9 C9       24.3554  -39.0700   -5.8753 C.ar      1 <0>        -0.1027
     10 C10      25.2686  -41.9563   -2.8496 C.ar      1 <0>        -0.1843
     11 C11      24.5718  -44.3658   -1.6306 C.ar      1 <0>         0.0999
     12 C12      23.6348  -43.6782   -2.4053 C.ar      1 <0>         0.0737
     13 C13      24.0909  -40.7230   -7.7109 C.2       1 <0>         0.6462
     14 C14      23.0052  -41.7592   -3.8630 C.2       1 <0>         0.9187
     15 C15      22.0245  -45.0239    2.7962 C.2       1 <0>         0.9112
     16 C16      22.2673  -45.5426   -2.3181 C.3       1 <0>         0.0865
     17 C17      22.8732  -45.8518   -0.9542 C.3       1 <0>         0.0987
     18 C18      25.4292  -43.9146   -6.7802 C.3       1 <0>        -0.0877
     19 C19      23.6183  -42.7649  -10.0192 C.3       1 <0>        -0.1220
     20 C20      27.2419  -41.4623   -5.2660 C.3       1 <0>         0.0921
     21 C21      25.7839  -39.4827   -5.6738 C.3       1 <0>         0.1528
     22 C22      25.6756  -40.6720   -3.4964 C.3       1 <0>         0.1881
     23 C23      22.6326  -45.6767    1.5492 C.3       1 <0>        -0.1996
     24 C24      22.1427  -45.1751    0.2042 C.3       1 <0>        -0.0544
     25 C25      25.2392  -43.4669   -8.2237 C.3       1 <0>        -0.0884
     26 C26      23.7902  -43.0700   -8.5348 C.3       1 <0>         0.0986
     27 N1       23.3801  -41.9274   -7.7503 N.am      1 <0>        -0.5184
     28 N2       25.9222  -40.8022   -4.9580 N.4       1 <0>        -0.7111
     29 O1       22.3454  -40.7900   -3.3366 O.co2     1 <0>        -0.7374
     30 O2       22.3723  -45.5052    3.9094 O.co2     1 <0>        -0.8465
     31 O3       25.1391  -40.5414   -8.3532 O.2       1 <0>        -0.6520
     32 O4       22.8478  -42.1288   -5.0841 O.co2     1 <0>        -0.9020
     33 O5       21.2462  -44.0583    2.5484 O.co2     1 <0>        -0.8520
     34 O6       22.3563  -44.1315   -2.6009 O.3       1 <0>        -0.2993
     35 O7       24.2637  -45.5017   -0.9234 O.3       1 <0>        -0.2996
     36 H1       20.6729  -37.9518   -6.3417 H         1 <0>         0.1395
     37 H2       22.0853  -36.8801   -4.6050 H         1 <0>         0.1381
     38 H3       21.6074  -39.7313   -7.7777 H         1 <0>         0.1514
     39 H4       24.4344  -37.5894   -4.3027 H         1 <0>         0.1322
     40 H5       27.1946  -42.2251   -1.9065 H         1 <0>         0.1156
     41 H6       26.5792  -44.3563   -0.8299 H         1 <0>         0.1541
     42 H7       22.7929  -46.0966   -3.1098 H         1 <0>         0.0859
     43 H8       21.2034  -45.8314   -2.3673 H         1 <0>         0.0606
     44 H9       22.8268  -46.9696   -0.7806 H         1 <0>         0.0592
     45 H10      24.7901  -44.7697   -6.5395 H         1 <0>         0.0277
     46 H11      26.4684  -44.2156   -6.6134 H         1 <0>         0.0279
     47 H12      25.1965  -43.1023   -6.0841 H         1 <0>         0.0375
     48 H13      24.2750  -41.9455  -10.3294 H         1 <0>         0.0870
     49 H14      23.8494  -43.6418  -10.6346 H         1 <0>         0.0360
     50 H15      22.5855  -42.4725  -10.2388 H         1 <0>         0.0212
     51 H16      28.0349  -40.8269   -4.8660 H         1 <0>         0.0619
     52 H17      27.2450  -42.4430   -4.7865 H         1 <0>         0.1142
     53 H18      27.3234  -41.5558   -6.3508 H         1 <0>         0.0879
     54 H19      26.3043  -39.5886   -6.6317 H         1 <0>         0.1208
     55 H20      26.3296  -38.7426   -5.0777 H         1 <0>         0.0735
     56 H21      24.9034  -39.9009   -3.3798 H         1 <0>         0.1169
     57 H22      26.6025  -40.2778   -3.0592 H         1 <0>         0.0592
     58 H23      22.3895  -46.7448    1.6149 H         1 <0>         0.0216
     59 H24      23.7252  -45.5916    1.6088 H         1 <0>         0.0363
     60 H25      22.2676  -44.0983    0.1033 H         1 <0>         0.0647
     61 H26      21.0826  -45.4012    0.0904 H         1 <0>         0.0629
     62 H27      25.9006  -42.6115   -8.4087 H         1 <0>         0.0641
     63 H28      25.5629  -44.2747   -8.8918 H         1 <0>         0.0427
     64 H29      23.1183  -43.8929   -8.2641 H         1 <0>         0.0623
     65 H30      22.5650  -42.0436   -7.1571 H         1 <0>         0.3643
     66 H31      25.1915  -41.4218   -5.3461 H         1 <0>         0.5209
@<TRIPOS>BOND
     1    1    2 ar
     2    1    3 ar
     3    2    4 ar
     4    3    7 ar
     5    4    9 ar
     6    5    6 ar
     7    5   10 ar
     8    6   11 ar
     9    7    9 ar
    10    7   13 1
    11    8   10 ar
    12    8   12 ar
    13    8   14 1
    14    9   21 1
    15   10   22 1
    16   11   12 ar
    17   11   35 1
    18   12   34 1
    19   13   27 am
    20   13   31 2
    21   14   29 1
    22   14   32 2
    23   15   23 1
    24   15   30 1
    25   15   33 2
    26   16   17 1
    27   16   34 1
    28   17   24 1
    29   17   35 1
    30   18   25 1
    31   19   26 1
    32   20   28 1
    33   21   28 1
    34   22   28 1
    35   23   24 1
    36   25   26 1
    37   26   27 1
    38    1   36 1
    39    2   37 1
    40    3   38 1
    41    4   39 1
    42    5   40 1
    43    6   41 1
    44   16   42 1
    45   16   43 1
    46   17   44 1
    47   18   45 1
    48   18   46 1
    49   18   47 1
    50   19   48 1
    51   19   49 1
    52   19   50 1
    53   20   51 1
    54   20   52 1
    55   20   53 1
    56   21   54 1
    57   21   55 1
    58   22   56 1
    59   22   57 1
    60   23   58 1
    61   23   59 1
    62   24   60 1
    63   24   61 1
    64   25   62 1
    65   25   63 1
    66   26   64 1
    67   27   65 1
    68   28   66 1
