@<TRIPOS>MOLECULE
AVX38786_1_3
   71    74     0     0     0
SMALL
USER_CHARGES

@<TRIPOS>ATOM
      1 C1        6.2261  -44.2691    4.9049 C.ar      1 <0>        -0.1104
      2 C2        6.6777  -43.1620    4.1865 C.ar      1 <0>        -0.1096
      3 C3        6.1638  -45.5208    4.2917 C.ar      1 <0>        -0.1024
      4 C4        7.0668  -43.3068    2.8546 C.ar      1 <0>        -0.1056
      5 C5       11.9485  -45.8029    1.1163 C.ar      1 <0>        -0.1370
      6 C6        8.2744  -49.9057    0.1925 C.ar      1 <0>        -0.0843
      7 C7        9.7544  -49.4666    2.0509 C.ar      1 <0>        -0.0938
      8 C8       13.1809  -46.2415    0.6310 C.ar      1 <0>        -0.1545
      9 C9        9.3767  -50.1148   -0.6363 C.ar      1 <0>        -0.1697
     10 C10      10.8568  -49.6758    1.2221 C.ar      1 <0>        -0.1972
     11 C11       6.5529  -45.6655    2.9599 C.ar      1 <0>        -0.1277
     12 C12      11.6872  -44.3764   -0.8179 C.ar      1 <0>        -0.0593
     13 C13       8.4632  -49.5815    1.5360 C.ar      1 <0>        -0.1893
     14 C14       7.0044  -44.5584    2.2413 C.ar      1 <0>        -0.1005
     15 C15      11.2054  -44.8675    0.3956 C.ar      1 <0>        -0.1943
     16 C16      13.6697  -45.7403   -0.5756 C.ar      1 <0>         0.0933
     17 C17      12.9130  -44.8250   -1.3105 C.ar      1 <0>         0.0612
     18 C18      10.6679  -49.9999   -0.1216 C.ar      1 <0>         0.1532
     19 C19       6.4769  -46.9837    2.3437 C.2       1 <0>         0.6499
     20 C20      10.8922  -43.3943   -1.5832 C.2       1 <0>         0.9140
     21 C21      18.7229  -45.8494   -4.1474 C.2       1 <0>         0.9108
     22 C22      14.3899  -45.0910   -3.0823 C.3       1 <0>         0.0858
     23 C23      15.4509  -45.3740   -2.0271 C.3       1 <0>         0.0980
     24 C24       8.9106  -45.9967   -0.7079 C.3       1 <0>         0.0563
     25 C25      13.0338  -50.1214   -0.3291 C.3       1 <0>         0.1047
     26 C26       7.2766  -49.3566    2.4282 C.3       1 <0>         0.1408
     27 C27       7.4283  -44.6852    0.8076 C.3       1 <0>         0.1411
     28 C28       9.8929  -44.4131    0.9472 C.3       1 <0>         0.1834
     29 C29      17.4548  -45.2354   -3.5421 C.3       1 <0>        -0.1984
     30 C30      16.6373  -46.1199   -2.6207 C.3       1 <0>        -0.0534
     31 N1        7.2293  -48.0037    2.9353 N.am      1 <0>        -0.5567
     32 N2        8.7737  -45.3460    0.6454 N.4       1 <0>        -0.6748
     33 O1        9.9869  -43.8286   -2.3855 O.co2     1 <0>        -0.8375
     34 O2       19.3377  -45.1474   -4.9959 O.co2     1 <0>        -0.8459
     35 O3        5.7850  -47.1641    1.3274 O.2       1 <0>        -0.5985
     36 O4       11.1364  -42.1431   -1.4178 O.co2     1 <0>        -0.7786
     37 O5       19.0060  -46.9990   -3.7021 O.co2     1 <0>        -0.8541
     38 O6       13.3231  -44.3221   -2.5171 O.3       1 <0>        -0.2907
     39 O7       14.8946  -46.1934   -0.9897 O.3       1 <0>        -0.3064
     40 O8       11.7428  -50.2053   -0.9308 O.3       1 <0>        -0.3205
     41 H1        5.9226  -44.1566    5.9420 H         1 <0>         0.1467
     42 H2        6.7251  -42.1874    4.6640 H         1 <0>         0.1483
     43 H3        5.8096  -46.3759    4.8619 H         1 <0>         0.1509
     44 H4        7.4166  -42.4377    2.3038 H         1 <0>         0.1489
     45 H5       11.5779  -46.1930    2.0605 H         1 <0>         0.1024
     46 H6        7.2720  -49.9973   -0.2169 H         1 <0>         0.1356
     47 H7        9.9113  -49.2135    3.0963 H         1 <0>         0.1288
     48 H8       13.7574  -46.9636    1.2027 H         1 <0>         0.1496
     49 H9        9.2242  -50.3673   -1.6822 H         1 <0>         0.1518
     50 H10      11.8599  -49.5836    1.6289 H         1 <0>         0.1627
     51 H11      14.8105  -44.5096   -3.9093 H         1 <0>         0.0894
     52 H12      13.9686  -46.0160   -3.4974 H         1 <0>         0.0437
     53 H13      15.8020  -44.4392   -1.5699 H         1 <0>         0.0671
     54 H14       8.8781  -45.2082   -1.4620 H         1 <0>         0.0952
     55 H15       9.8669  -46.5229   -0.7308 H         1 <0>         0.1867
     56 H16       8.0774  -46.6915   -0.8305 H         1 <0>         0.0738
     57 H17      13.8013  -50.3053   -1.0850 H         1 <0>         0.0741
     58 H18      13.1120  -50.8604    0.4721 H         1 <0>         0.0371
     59 H19      13.1676  -49.1199    0.0871 H         1 <0>         0.0623
     60 H20       6.3443  -49.5462    1.8854 H         1 <0>         0.0774
     61 H21       7.2967  -50.0356    3.2871 H         1 <0>         0.0597
     62 H22       6.7127  -45.2845    0.2343 H         1 <0>         0.1228
     63 H23       7.5005  -43.7027    0.3285 H         1 <0>         0.0991
     64 H24       9.9283  -44.3144    2.0398 H         1 <0>         0.0692
     65 H25       9.6018  -43.4368    0.5387 H         1 <0>         0.1414
     66 H26      16.8163  -44.9571   -4.3897 H         1 <0>         0.0243
     67 H27      17.7284  -44.3056   -3.0276 H         1 <0>         0.0348
     68 H28      17.2355  -46.5150   -1.8018 H         1 <0>         0.0601
     69 H29      16.2375  -46.9651   -3.1804 H         1 <0>         0.0632
     70 H30       7.8263  -47.7861    3.7267 H         1 <0>         0.3149
     71 H31       8.8074  -46.1116    1.3383 H         1 <0>         0.4368
@<TRIPOS>BOND
     1    1    2 ar
     2    1    3 ar
     3    2    4 ar
     4    3   11 ar
     5    4   14 ar
     6    5    8 ar
     7    5   15 ar
     8    6    9 ar
     9    6   13 ar
    10    7   10 ar
    11    7   13 ar
    12    8   16 ar
    13    9   18 ar
    14   10   18 ar
    15   11   14 ar
    16   11   19 1
    17   12   15 ar
    18   12   17 ar
    19   12   20 1
    20   13   26 1
    21   14   27 1
    22   15   28 1
    23   16   17 ar
    24   16   39 1
    25   17   38 1
    26   18   40 1
    27   19   31 am
    28   19   35 2
    29   20   33 1
    30   20   36 2
    31   21   29 1
    32   21   34 1
    33   21   37 2
    34   22   23 1
    35   22   38 1
    36   23   30 1
    37   23   39 1
    38   24   32 1
    39   25   40 1
    40   26   31 1
    41   27   32 1
    42   28   32 1
    43   29   30 1
    44    1   41 1
    45    2   42 1
    46    3   43 1
    47    4   44 1
    48    5   45 1
    49    6   46 1
    50    7   47 1
    51    8   48 1
    52    9   49 1
    53   10   50 1
    54   22   51 1
    55   22   52 1
    56   23   53 1
    57   24   54 1
    58   24   55 1
    59   24   56 1
    60   25   57 1
    61   25   58 1
    62   25   59 1
    63   26   60 1
    64   26   61 1
    65   27   62 1
    66   27   63 1
    67   28   64 1
    68   28   65 1
    69   29   66 1
    70   29   67 1
    71   30   68 1
    72   30   69 1
    73   31   70 1
    74   32   71 1
