@<TRIPOS>MOLECULE
AVX38749_0_12
   64    67     0     0     0
SMALL
USER_CHARGES

@<TRIPOS>ATOM
      1 C1        5.3505  -45.6488    2.0712 C.ar      1 <0>        -0.1486
      2 C2        6.1178  -44.5003    1.8033 C.ar      1 <0>        -0.1320
      3 C3        5.9153  -46.9252    1.9760 C.ar      1 <0>        -0.1317
      4 C4        7.4611  -44.6112    1.4356 C.ar      1 <0>        -0.0955
      5 C5       12.7905  -46.3199    1.0749 C.ar      1 <0>        -0.1546
      6 C6       13.9657  -46.5002    0.3450 C.ar      1 <0>        -0.1632
      7 C7       11.9252  -44.8750   -0.6619 C.ar      1 <0>        -0.0789
      8 C8        7.2513  -47.0248    1.6243 C.ar      1 <0>        -0.1125
      9 C9        8.0215  -45.8800    1.3557 C.ar      1 <0>        -0.0698
     10 C10      11.7741  -45.5039    0.5746 C.ar      1 <0>        -0.1141
     11 C11      14.1093  -45.8870   -0.9006 C.ar      1 <0>         0.0632
     12 C12      13.0944  -45.0660   -1.3988 C.ar      1 <0>         0.0714
     13 C13      10.8421  -44.0207   -1.1931 C.2       1 <0>         0.9198
     14 C14      10.7576  -48.8185    3.3581 C.2       1 <0>         0.6617
     15 C15      19.1655  -46.3072   -3.3441 C.2       1 <0>         0.9083
     16 C16       8.0562  -48.2787    1.4318 C.3       1 <0>        -0.0543
     17 C17      14.2323  -44.9719   -3.4201 C.3       1 <0>         0.0888
     18 C18       9.4156  -46.2761    0.9444 C.3       1 <0>        -0.0384
     19 C19       9.4968  -47.7244    1.5130 C.3       1 <0>         0.1032
     20 C20      15.5067  -45.1014   -2.5961 C.3       1 <0>         0.0988
     21 C21      10.5220  -45.3247    1.3913 C.3       1 <0>        -0.0104
     22 C22      11.1198  -48.6121    4.8192 C.3       1 <0>        -0.1709
     23 C23      17.8644  -45.9811   -2.6009 C.3       1 <0>        -0.1923
     24 C24      16.6699  -45.5878   -3.4486 C.3       1 <0>        -0.0525
     25 C25      10.1971  -49.3808    5.7622 C.3       1 <0>        -0.1038
     26 C26       8.7615  -48.8937    5.6379 C.3       1 <0>         0.1012
     27 N1        9.9813  -47.7738    2.8789 N.am      1 <0>        -0.5244
     28 N2        8.6872  -47.4753    6.0806 N.4       1 <0>        -0.8409
     29 O1        9.8782  -44.5831   -1.8339 O.co2     1 <0>        -0.8272
     30 O2       19.7070  -45.3538   -3.9715 O.co2     1 <0>        -0.8638
     31 O3       10.9054  -42.7480   -0.9942 O.co2     1 <0>        -0.8207
     32 O4       11.1178  -49.7978    2.7042 O.2       1 <0>        -0.6284
     33 O5       19.5468  -47.5106   -3.2219 O.co2     1 <0>        -0.8532
     34 O6       13.1754  -44.4392   -2.6147 O.3       1 <0>        -0.2914
     35 O7       15.3070  -46.0594   -1.5452 O.3       1 <0>        -0.3191
     36 H1        4.3054  -45.5422    2.3489 H         1 <0>         0.1161
     37 H2        5.6589  -43.5149    1.8747 H         1 <0>         0.1274
     38 H3        5.3185  -47.8126    2.1741 H         1 <0>         0.1172
     39 H4        8.0409  -43.7181    1.2147 H         1 <0>         0.1729
     40 H5       12.6785  -46.8163    2.0356 H         1 <0>         0.0841
     41 H6       14.7560  -47.1301    0.7458 H         1 <0>         0.1251
     42 H7        7.8464  -49.0300    2.2011 H         1 <0>         0.0405
     43 H8        7.8498  -48.6958    0.4386 H         1 <0>         0.0718
     44 H9       14.3820  -44.2831   -4.2595 H         1 <0>         0.0748
     45 H10      13.9063  -45.9424   -3.8264 H         1 <0>         0.0484
     46 H11       9.4213  -46.3366   -0.1565 H         1 <0>         0.1375
     47 H12      10.1862  -48.3462    0.9285 H         1 <0>         0.1012
     48 H13      15.7712  -44.1362   -2.1355 H         1 <0>         0.0556
     49 H14      10.7446  -45.4904    2.4519 H         1 <0>         0.0009
     50 H15      10.1743  -44.2850    1.3135 H         1 <0>         0.0995
     51 H16      11.0691  -47.5348    5.0387 H         1 <0>         0.0627
     52 H17      12.1570  -48.9383    4.9633 H         1 <0>         0.0799
     53 H18      18.0943  -45.1340   -1.9376 H         1 <0>         0.0218
     54 H19      17.6074  -46.8355   -1.9593 H         1 <0>         0.0347
     55 H20      16.3195  -46.4182   -4.0640 H         1 <0>         0.0584
     56 H21      16.9437  -44.7663   -4.1134 H         1 <0>         0.0543
     57 H22      10.5440  -49.2584    6.7971 H         1 <0>         0.0977
     58 H23      10.2494  -50.4576    5.5364 H         1 <0>         0.0863
     59 H24       8.4074  -48.9244    4.6026 H         1 <0>         0.1124
     60 H25       8.0792  -49.4624    6.2765 H         1 <0>         0.1033
     61 H26       9.7022  -47.0237    3.5058 H         1 <0>         0.3181
     62 H27       7.9930  -46.9550    5.5331 H         1 <0>         0.4548
     63 H28       9.5931  -47.0059    5.9677 H         1 <0>         0.4673
     64 H29       8.4211  -47.4101    7.0699 H         1 <0>         0.4520
@<TRIPOS>BOND
     1    1    2 ar
     2    1    3 ar
     3    2    4 ar
     4    3    8 ar
     5    4    9 ar
     6    5    6 ar
     7    5   10 ar
     8    6   11 ar
     9    7   10 ar
    10    7   12 ar
    11    7   13 1
    12    8    9 ar
    13    8   16 1
    14    9   18 1
    15   10   21 1
    16   11   12 ar
    17   11   35 1
    18   12   34 1
    19   13   29 1
    20   13   31 2
    21   14   22 1
    22   14   27 am
    23   14   32 2
    24   15   23 1
    25   15   30 1
    26   15   33 2
    27   16   19 1
    28   17   20 1
    29   17   34 1
    30   18   19 1
    31   18   21 1
    32   19   27 1
    33   20   24 1
    34   20   35 1
    35   22   25 1
    36   23   24 1
    37   25   26 1
    38   26   28 1
    39    1   36 1
    40    2   37 1
    41    3   38 1
    42    4   39 1
    43    5   40 1
    44    6   41 1
    45   16   42 1
    46   16   43 1
    47   17   44 1
    48   17   45 1
    49   18   46 1
    50   19   47 1
    51   20   48 1
    52   21   49 1
    53   21   50 1
    54   22   51 1
    55   22   52 1
    56   23   53 1
    57   23   54 1
    58   24   55 1
    59   24   56 1
    60   25   57 1
    61   25   58 1
    62   26   59 1
    63   26   60 1
    64   27   61 1
    65   28   62 1
    66   28   63 1
    67   28   64 1
