@<TRIPOS>MOLECULE
AVX38747_0_7
   70    73     0     0     0
SMALL
USER_CHARGES

@<TRIPOS>ATOM
      1 C1       26.3589  -44.6441    0.7911 C.ar      1 <0>        -0.1466
      2 C2       26.9255  -43.4260    0.3816 C.ar      1 <0>        -0.1339
      3 C3       25.1708  -45.1044    0.2195 C.ar      1 <0>        -0.1295
      4 C4       26.3121  -42.6499   -0.6051 C.ar      1 <0>        -0.0974
      5 C5       22.8048  -40.5817   -3.7269 C.ar      1 <0>        -0.1631
      6 C6       21.8992  -39.9234   -4.5591 C.ar      1 <0>        -0.1892
      7 C7       24.4137  -40.6798   -5.5420 C.ar      1 <0>        -0.0781
      8 C8       24.5771  -44.3351   -0.7676 C.ar      1 <0>        -0.1078
      9 C9       25.1398  -43.1175   -1.1797 C.ar      1 <0>        -0.0714
     10 C10      24.0581  -40.9644   -4.2192 C.ar      1 <0>        -0.0934
     11 C11      22.2489  -39.6509   -5.8860 C.ar      1 <0>         0.0621
     12 C12      23.5139  -40.0092   -6.3707 C.ar      1 <0>         0.0766
     13 C13      25.7459  -41.0768   -6.0563 C.2       1 <0>         0.9220
     14 C14      23.3634  -45.1565   -4.7357 C.2       1 <0>         0.6508
     15 C15      21.1338  -36.1373   -7.1840 C.2       1 <0>         0.9097
     16 C16      23.2945  -44.6104   -1.4955 C.3       1 <0>        -0.0570
     17 C17      23.0932  -38.7664   -8.2880 C.3       1 <0>         0.0893
     18 C18      24.2659  -42.4636   -2.2180 C.3       1 <0>        -0.0346
     19 C19      23.4376  -43.6791   -2.7212 C.3       1 <0>         0.1032
     20 C20      21.6217  -39.1052   -8.0609 C.3       1 <0>         0.0996
     21 C21      25.0088  -41.6798   -3.2967 C.3       1 <0>        -0.0159
     22 C22      24.2903  -45.7946   -5.7651 C.3       1 <0>        -0.1618
     23 C23      21.1578  -36.6951   -8.6142 C.3       1 <0>        -0.1921
     24 C24      20.7101  -38.1328   -8.7951 C.3       1 <0>        -0.0548
     25 C25      23.6434  -46.0000   -7.1347 C.3       1 <0>        -0.0629
     26 C26      23.2879  -44.6744   -7.8167 C.3       1 <0>        -0.1038
     27 C27      22.5009  -44.9128   -9.1097 C.3       1 <0>        -0.1121
     28 C28      21.1386  -45.5593   -8.8770 C.3       1 <0>         0.1057
     29 N1       24.0694  -44.3835   -3.8253 N.am      1 <0>        -0.5414
     30 N2       20.2704  -44.6822   -8.0479 N.4       1 <0>        -0.8392
     31 O1       26.7222  -40.2463   -5.9463 O.co2     1 <0>        -0.8164
     32 O2       21.9298  -36.6672   -6.3614 O.co2     1 <0>        -0.8681
     33 O3       25.8774  -42.2373   -6.5943 O.co2     1 <0>        -0.8200
     34 O4       22.1458  -45.3344   -4.7185 O.2       1 <0>        -0.6314
     35 O5       20.3127  -35.1894   -7.0084 O.co2     1 <0>        -0.8415
     36 O6       23.9283  -39.7397   -7.6527 O.3       1 <0>        -0.2896
     37 O7       21.3099  -39.0208   -6.6594 O.3       1 <0>        -0.3272
     38 H1       26.8471  -45.2301    1.5650 H         1 <0>         0.1164
     39 H2       27.8469  -43.0796    0.8436 H         1 <0>         0.1258
     40 H3       24.7287  -46.0415    0.5438 H         1 <0>         0.1201
     41 H4       26.7496  -41.7021   -0.9027 H         1 <0>         0.1700
     42 H5       22.5222  -40.7964   -2.6964 H         1 <0>         0.0861
     43 H6       20.9218  -39.6367   -4.1704 H         1 <0>         0.0952
     44 H7       23.1963  -45.6638   -1.7758 H         1 <0>         0.0479
     45 H8       22.4456  -44.3082   -0.8653 H         1 <0>         0.0687
     46 H9       23.3377  -38.7747   -9.3585 H         1 <0>         0.0790
     47 H10      23.3497  -37.7762   -7.8894 H         1 <0>         0.0533
     48 H11      23.5850  -41.7790   -1.6802 H         1 <0>         0.1331
     49 H12      22.4530  -43.3665   -3.0895 H         1 <0>         0.0936
     50 H13      21.4049  -40.1282   -8.3955 H         1 <0>         0.0528
     51 H14      25.6490  -42.3586   -3.8777 H         1 <0>         0.0058
     52 H15      25.6845  -40.9556   -2.8268 H         1 <0>         0.1017
     53 H16      25.2010  -45.1891   -5.8648 H         1 <0>         0.0542
     54 H17      24.5863  -46.7714   -5.3633 H         1 <0>         0.0733
     55 H18      22.2021  -36.6245   -8.9562 H         1 <0>         0.0189
     56 H19      20.5647  -36.0319   -9.2562 H         1 <0>         0.0248
     57 H20      20.6842  -38.4193   -9.8467 H         1 <0>         0.0611
     58 H21      19.7050  -38.2614   -8.3839 H         1 <0>         0.0584
     59 H22      24.3510  -46.5482   -7.7752 H         1 <0>         0.0321
     60 H23      22.7447  -46.6235   -7.0395 H         1 <0>         0.0730
     61 H24      24.2099  -44.1239   -8.0482 H         1 <0>         0.0247
     62 H25      22.6994  -44.0528   -7.1283 H         1 <0>         0.1006
     63 H26      22.3392  -43.9509   -9.6114 H         1 <0>         0.0544
     64 H27      23.0979  -45.5307   -9.7980 H         1 <0>         0.1050
     65 H28      20.6071  -45.7465   -9.8150 H         1 <0>         0.0966
     66 H29      21.2437  -46.4989   -8.3269 H         1 <0>         0.1317
     67 H30      25.0787  -44.3073   -3.9377 H         1 <0>         0.3126
     68 H31      20.6556  -43.7330   -7.9900 H         1 <0>         0.4549
     69 H32      20.1824  -45.0448   -7.0902 H         1 <0>         0.4802
     70 H33      19.3256  -44.6148   -8.4444 H         1 <0>         0.4552
@<TRIPOS>BOND
     1    1    2 ar
     2    1    3 ar
     3    2    4 ar
     4    3    8 ar
     5    4    9 ar
     6    5    6 ar
     7    5   10 ar
     8    6   11 ar
     9    7   10 ar
    10    7   12 ar
    11    7   13 1
    12    8    9 ar
    13    8   16 1
    14    9   18 1
    15   10   21 1
    16   11   12 ar
    17   11   37 1
    18   12   36 1
    19   13   31 1
    20   13   33 2
    21   14   22 1
    22   14   29 am
    23   14   34 2
    24   15   23 1
    25   15   32 1
    26   15   35 2
    27   16   19 1
    28   17   20 1
    29   17   36 1
    30   18   19 1
    31   18   21 1
    32   19   29 1
    33   20   24 1
    34   20   37 1
    35   22   25 1
    36   23   24 1
    37   25   26 1
    38   26   27 1
    39   27   28 1
    40   28   30 1
    41    1   38 1
    42    2   39 1
    43    3   40 1
    44    4   41 1
    45    5   42 1
    46    6   43 1
    47   16   44 1
    48   16   45 1
    49   17   46 1
    50   17   47 1
    51   18   48 1
    52   19   49 1
    53   20   50 1
    54   21   51 1
    55   21   52 1
    56   22   53 1
    57   22   54 1
    58   23   55 1
    59   23   56 1
    60   24   57 1
    61   24   58 1
    62   25   59 1
    63   25   60 1
    64   26   61 1
    65   26   62 1
    66   27   63 1
    67   27   64 1
    68   28   65 1
    69   28   66 1
    70   29   67 1
    71   30   68 1
    72   30   69 1
    73   30   70 1
