@<TRIPOS>MOLECULE
AVX38741_0_15
   65    69     0     0     0
SMALL
USER_CHARGES

@<TRIPOS>ATOM
      1 C1       11.8798  -50.1900    0.0698 C.ar      1 <0>        -0.1229
      2 C2        5.6582  -44.3487    3.7732 C.ar      1 <0>        -0.1089
      3 C3        6.2075  -43.1890    3.2299 C.ar      1 <0>        -0.0974
      4 C4       11.6004  -49.2261   -0.8990 C.ar      1 <0>        -0.1336
      5 C5       10.8837  -50.5954    0.9580 C.ar      1 <0>        -0.1299
      6 C6        5.7940  -45.5654    3.1066 C.ar      1 <0>        -0.0723
      7 C7        6.8902  -43.2399    2.0136 C.ar      1 <0>        -0.0936
      8 C8       10.3248  -48.6674   -0.9796 C.ar      1 <0>        -0.1093
      9 C9        9.6082  -50.0368    0.8775 C.ar      1 <0>        -0.1451
     10 C10      12.1794  -45.9215    0.5665 C.ar      1 <0>        -0.1487
     11 C11      13.4008  -46.4253    0.1187 C.ar      1 <0>        -0.1538
     12 C12       6.4908  -45.6219    1.8939 C.ar      1 <0>        -0.1195
     13 C13      12.1322  -44.3697   -1.2870 C.ar      1 <0>        -0.0656
     14 C14       7.0341  -44.4532    1.3272 C.ar      1 <0>        -0.0942
     15 C15       9.3287  -49.0728   -0.0913 C.ar      1 <0>        -0.1367
     16 C16      11.5488  -44.8915   -0.1322 C.ar      1 <0>        -0.1958
     17 C17      14.0097  -45.8480   -1.0294 C.ar      1 <0>         0.0957
     18 C18      13.3467  -44.8824   -1.7431 C.ar      1 <0>         0.0756
     19 C19       6.5980  -46.9375    1.2120 C.2       1 <0>         0.7070
     20 C20      11.4559  -43.2866   -2.0301 C.2       1 <0>         0.9223
     21 C21      19.2532  -46.1796   -4.2711 C.2       1 <0>         0.9099
     22 C22       7.7770  -44.4569   -0.0200 C.3       1 <0>         0.1580
     23 C23      14.8956  -45.1590   -3.4500 C.3       1 <0>         0.0840
     24 C24       9.0031  -46.5070    0.8558 C.3       1 <0>         0.2627
     25 C25      15.8725  -45.5835   -2.3615 C.3       1 <0>         0.1084
     26 C26       7.9558  -48.4713   -0.1779 C.3       1 <0>         0.1226
     27 C27      10.2399  -44.3675    0.3806 C.3       1 <0>         0.1820
     28 C28      18.0377  -45.4909   -3.6395 C.3       1 <0>        -0.2005
     29 C29      17.0312  -46.3833   -2.9386 C.3       1 <0>        -0.0585
     30 N1        7.8320  -47.2762    0.6428 N.am      1 <0>        -0.4646
     31 N2        9.0722  -45.2451    0.0209 N.4       1 <0>        -0.7132
     32 O1       10.5600  -43.6021   -2.8958 O.co2     1 <0>        -0.7572
     33 O2       20.1340  -45.4239   -4.7651 O.co2     1 <0>        -0.8450
     34 O3        5.5892  -47.6401    1.1739 O.2       1 <0>        -0.6069
     35 O4       11.7895  -42.0704   -1.7826 O.co2     1 <0>        -0.8783
     36 O5       19.2264  -47.4425   -4.2039 O.co2     1 <0>        -0.8547
     37 O6       13.8591  -44.3439   -2.8938 O.3       1 <0>        -0.2918
     38 O7       15.2004  -46.4161   -1.4063 O.3       1 <0>        -0.3046
     39 H1       12.8730  -50.6248    0.1328 H         1 <0>         0.1364
     40 H2        5.1243  -44.3043    4.7180 H         1 <0>         0.1415
     41 H3        6.1009  -42.2424    3.7518 H         1 <0>         0.1480
     42 H4       12.3760  -48.9103   -1.5902 H         1 <0>         0.1368
     43 H5       11.1016  -51.3452    1.7129 H         1 <0>         0.1417
     44 H6        5.3628  -46.4605    3.5475 H         1 <0>         0.1594
     45 H7        7.3058  -42.3227    1.6036 H         1 <0>         0.1442
     46 H8       10.1162  -47.9164   -1.7372 H         1 <0>         0.1545
     47 H9        8.8383  -50.3585    1.5739 H         1 <0>         0.1426
     48 H10      11.7291  -46.3357    1.4648 H         1 <0>         0.0992
     49 H11      13.8896  -47.2214    0.6737 H         1 <0>         0.1491
     50 H12       7.1252  -44.9736   -0.7470 H         1 <0>         0.0878
     51 H13       7.9636  -43.4803   -0.3732 H         1 <0>         0.0906
     52 H14      15.4034  -44.5650   -4.2172 H         1 <0>         0.0824
     53 H15      14.4306  -46.0229   -3.9424 H         1 <0>         0.0621
     54 H16       9.1168  -46.2033    1.9169 H         1 <0>         0.1942
     55 H17       9.9319  -47.0911    0.5981 H         1 <0>         0.1358
     56 H18      16.2661  -44.7069   -1.8305 H         1 <0>         0.0580
     57 H19       7.7190  -48.1965   -1.2114 H         1 <0>         0.0972
     58 H20       7.1930  -49.1844    0.1520 H         1 <0>         0.0787
     59 H21      10.2470  -44.2854    1.4728 H         1 <0>         0.1595
     60 H22      10.0244  -43.3740   -0.0273 H         1 <0>         0.0610
     61 H23      17.5165  -44.9802   -4.4590 H         1 <0>         0.0231
     62 H24      18.3949  -44.7135   -2.9527 H         1 <0>         0.0355
     63 H25      17.4876  -46.9530   -2.1311 H         1 <0>         0.0652
     64 H26      16.6089  -47.0918   -3.6503 H         1 <0>         0.0668
     65 H27       9.2369  -45.5491   -0.9543 H         1 <0>         0.4233
@<TRIPOS>BOND
     1    1    4 ar
     2    1    5 ar
     3    2    3 ar
     4    2    6 ar
     5    3    7 ar
     6    4    8 ar
     7    5    9 ar
     8    6   12 ar
     9    7   14 ar
    10    8   15 ar
    11    9   15 ar
    12   10   11 ar
    13   10   16 ar
    14   11   17 ar
    15   12   14 ar
    16   12   19 1
    17   13   16 ar
    18   13   18 ar
    19   13   20 1
    20   14   22 1
    21   15   26 1
    22   16   27 1
    23   17   18 ar
    24   17   38 1
    25   18   37 1
    26   19   30 am
    27   19   34 2
    28   20   32 1
    29   20   35 2
    30   21   28 1
    31   21   33 1
    32   21   36 2
    33   22   31 1
    34   23   25 1
    35   23   37 1
    36   24   30 1
    37   24   31 1
    38   25   29 1
    39   25   38 1
    40   26   30 1
    41   27   31 1
    42   28   29 1
    43    1   39 1
    44    2   40 1
    45    3   41 1
    46    4   42 1
    47    5   43 1
    48    6   44 1
    49    7   45 1
    50    8   46 1
    51    9   47 1
    52   10   48 1
    53   11   49 1
    54   22   50 1
    55   22   51 1
    56   23   52 1
    57   23   53 1
    58   24   54 1
    59   24   55 1
    60   25   56 1
    61   26   57 1
    62   26   58 1
    63   27   59 1
    64   27   60 1
    65   28   61 1
    66   28   62 1
    67   29   63 1
    68   29   64 1
    69   31   65 1
