@<TRIPOS>MOLECULE
AVX38753_1_3
   71    74     0     0     0
SMALL
USER_CHARGES

@<TRIPOS>ATOM
      1 C1       15.7785  -44.5321   -2.8602 C.ar      1 <0>        -0.1091
      2 C2       21.2037  -42.9779   -8.2092 C.ar      1 <0>        -0.1063
      3 C3       17.0560  -44.6492   -2.3118 C.ar      1 <0>        -0.1325
      4 C4       15.4672  -45.1923   -4.0489 C.ar      1 <0>        -0.1182
      5 C5       22.4899  -43.2897   -8.6518 C.ar      1 <0>        -0.1139
      6 C6       20.6258  -43.7117   -7.1732 C.ar      1 <0>        -0.0911
      7 C7       18.0224  -45.4263   -2.9518 C.ar      1 <0>        -0.1179
      8 C8       16.4334  -45.9694   -4.6891 C.ar      1 <0>        -0.0986
      9 C9       23.1981  -44.3354   -8.0586 C.ar      1 <0>        -0.1112
     10 C10      25.3850  -43.0493   -6.7044 C.ar      1 <0>        -0.1259
     11 C11      25.1311  -41.7215   -7.0500 C.ar      1 <0>        -0.1486
     12 C12      21.3340  -44.7574   -6.5801 C.ar      1 <0>        -0.0856
     13 C13      24.1518  -42.7549   -4.6453 C.ar      1 <0>        -0.0798
     14 C14      17.7111  -46.0865   -4.1407 C.ar      1 <0>        -0.1038
     15 C15      22.6202  -45.0692   -7.0227 C.ar      1 <0>        -0.0940
     16 C16      24.9008  -43.5637   -5.5012 C.ar      1 <0>        -0.1775
     17 C17      24.3939  -40.9083   -6.1879 C.ar      1 <0>         0.0959
     18 C18      23.8858  -41.4309   -4.9967 C.ar      1 <0>         0.0781
     19 C19      25.1363  -46.9712   -1.8922 C.2       1 <0>        -0.1791
     20 C20      24.1248  -46.7842   -2.7476 C.2       1 <0>        -0.2090
     21 C21      20.7065  -45.5080   -5.5010 C.2       1 <0>         0.6478
     22 C22      23.6318  -43.3064   -3.3775 C.2       1 <0>         0.9226
     23 C23      21.7011  -36.4411   -7.8744 C.2       1 <0>         0.9111
     24 C24      22.6310  -39.4944   -4.7305 C.3       1 <0>         0.0863
     25 C25      23.7476  -38.7853   -5.4858 C.3       1 <0>         0.0984
     26 C26      18.7512  -46.9228   -4.8297 C.3       1 <0>         0.1243
     27 C27      23.4042  -46.1891   -6.4033 C.3       1 <0>         0.1575
     28 C28      25.1971  -44.9879   -5.1579 C.3       1 <0>         0.1862
     29 C29      24.2109  -47.0616   -4.2122 C.3       1 <0>         0.1429
     30 C30      22.1303  -37.6633   -7.0536 C.3       1 <0>        -0.1994
     31 C31      23.2680  -37.4645   -6.0706 C.3       1 <0>        -0.0537
     32 N1       19.5047  -46.1591   -5.7981 N.am      1 <0>        -0.5173
     33 N2       23.9772  -45.8335   -5.0551 N.4       1 <0>        -0.7139
     34 O1       22.4822  -43.8815   -3.3833 O.co2     1 <0>        -0.7335
     35 O2       22.5597  -35.9672   -8.6676 O.co2     1 <0>        -0.8486
     36 O3       21.2234  -45.5364   -4.3713 O.2       1 <0>        -0.6533
     37 O4       24.3486  -43.1898   -2.3171 O.co2     1 <0>        -0.8962
     38 O5       20.5133  -36.0622   -7.6590 O.co2     1 <0>        -0.8509
     39 O6       23.1277  -40.6930   -4.1255 O.3       1 <0>        -0.2979
     40 O7       24.1953  -39.6081   -6.5724 O.3       1 <0>        -0.2996
     41 H1       15.0262  -43.9267   -2.3622 H         1 <0>         0.1377
     42 H2       20.6518  -42.1640   -8.6714 H         1 <0>         0.1397
     43 H3       17.2984  -44.1348   -1.3865 H         1 <0>         0.1262
     44 H4       14.4727  -45.1004   -4.4765 H         1 <0>         0.1329
     45 H5       22.9391  -42.7187   -9.4591 H         1 <0>         0.1372
     46 H6       19.6226  -43.4596   -6.8376 H         1 <0>         0.1492
     47 H7       19.0155  -45.5112   -2.5175 H         1 <0>         0.1123
     48 H8       16.1822  -46.4800   -5.6150 H         1 <0>         0.1277
     49 H9       24.1995  -44.5702   -8.4112 H         1 <0>         0.1311
     50 H10      25.9659  -43.6745   -7.3782 H         1 <0>         0.1134
     51 H11      25.5192  -41.3262   -7.9847 H         1 <0>         0.1530
     52 H12      25.0099  -46.7552   -0.8370 H         1 <0>         0.1233
     53 H13      26.1004  -47.3408   -2.2248 H         1 <0>         0.1222
     54 H14      23.1769  -46.4166   -2.3618 H         1 <0>         0.1390
     55 H15      22.2406  -38.8590   -3.9283 H         1 <0>         0.0847
     56 H16      21.7948  -39.7597   -5.3903 H         1 <0>         0.0611
     57 H17      24.6052  -38.5996   -4.8256 H         1 <0>         0.0557
     58 H18      19.4587  -47.3366   -4.1025 H         1 <0>         0.0699
     59 H19      18.2923  -47.7677   -5.3537 H         1 <0>         0.0462
     60 H20      22.7784  -47.0756   -6.2551 H         1 <0>         0.1151
     61 H21      24.2492  -46.4793   -7.0376 H         1 <0>         0.0742
     62 H22      25.8386  -45.4592   -5.9139 H         1 <0>         0.1157
     63 H23      25.7133  -45.0694   -4.1927 H         1 <0>         0.0593
     64 H24      23.4449  -47.7861   -4.5049 H         1 <0>         0.1229
     65 H25      25.1908  -47.4524   -4.5060 H         1 <0>         0.0896
     66 H26      22.4466  -38.4232   -7.7796 H         1 <0>         0.0211
     67 H27      21.2490  -38.0615   -6.5352 H         1 <0>         0.0371
     68 H28      22.9831  -36.8107   -5.2479 H         1 <0>         0.0667
     69 H29      24.1189  -37.0116   -6.5786 H         1 <0>         0.0592
     70 H30      19.0948  -46.0505   -6.7200 H         1 <0>         0.3650
     71 H31      23.2513  -45.2805   -4.5697 H         1 <0>         0.5265
@<TRIPOS>BOND
     1    1    3 ar
     2    1    4 ar
     3    2    5 ar
     4    2    6 ar
     5    3    7 ar
     6    4    8 ar
     7    5    9 ar
     8    6   12 ar
     9    7   14 ar
    10    8   14 ar
    11    9   15 ar
    12   10   11 ar
    13   10   16 ar
    14   11   17 ar
    15   12   15 ar
    16   12   21 1
    17   13   16 ar
    18   13   18 ar
    19   13   22 1
    20   14   26 1
    21   15   27 1
    22   16   28 1
    23   17   18 ar
    24   17   40 1
    25   18   39 1
    26   19   20 2
    27   20   29 1
    28   21   32 am
    29   21   36 2
    30   22   34 1
    31   22   37 2
    32   23   30 1
    33   23   35 1
    34   23   38 2
    35   24   25 1
    36   24   39 1
    37   25   31 1
    38   25   40 1
    39   26   32 1
    40   27   33 1
    41   28   33 1
    42   29   33 1
    43   30   31 1
    44    1   41 1
    45    2   42 1
    46    3   43 1
    47    4   44 1
    48    5   45 1
    49    6   46 1
    50    7   47 1
    51    8   48 1
    52    9   49 1
    53   10   50 1
    54   11   51 1
    55   19   52 1
    56   19   53 1
    57   20   54 1
    58   24   55 1
    59   24   56 1
    60   25   57 1
    61   26   58 1
    62   26   59 1
    63   27   60 1
    64   27   61 1
    65   28   62 1
    66   28   63 1
    67   29   64 1
    68   29   65 1
    69   30   66 1
    70   30   67 1
    71   31   68 1
    72   31   69 1
    73   32   70 1
    74   33   71 1
