@<TRIPOS>MOLECULE
AVX38674_0_35
   59    62     0     0     0
SMALL
USER_CHARGES

@<TRIPOS>ATOM
      1 C1        7.1879  -41.8960    1.1632 C.ar      1 <0>        -0.1282
      2 C2       16.0435  -45.4575   -3.5455 C.ar      1 <0>        -0.1293
      3 C3        6.8963  -43.2458    0.9665 C.ar      1 <0>        -0.1383
      4 C4        8.1541  -41.2687    0.3759 C.ar      1 <0>        -0.1341
      5 C5       16.2671  -45.6511   -2.1796 C.ar      1 <0>        -0.1301
      6 C6       14.7660  -45.1246   -4.0085 C.ar      1 <0>        -0.1330
      7 C7        7.5696  -43.9683   -0.0184 C.ar      1 <0>        -0.1228
      8 C8        8.8273  -41.9912   -0.6089 C.ar      1 <0>        -0.1008
      9 C9       15.2132  -45.5118   -1.2766 C.ar      1 <0>        -0.0971
     10 C10      13.7121  -44.9852   -3.1055 C.ar      1 <0>        -0.1186
     11 C11       9.3933  -47.0581    1.1181 C.ar      1 <0>        -0.1340
     12 C12       8.1459  -46.5513    1.4937 C.ar      1 <0>        -0.1512
     13 C13       8.3258  -48.8259   -0.1793 C.ar      1 <0>        -0.0634
     14 C14       8.5352  -43.3410   -0.8062 C.ar      1 <0>        -0.1216
     15 C15      13.9357  -45.1789   -1.7396 C.ar      1 <0>        -0.1022
     16 C16       9.4828  -48.1889    0.2864 C.ar      1 <0>        -0.1136
     17 C17       7.0192  -47.1988    1.0202 C.ar      1 <0>         0.0394
     18 C18       7.1067  -48.3054    0.2060 C.ar      1 <0>         0.0587
     19 C19       8.3939  -50.0109   -1.0510 C.2       1 <0>         0.9214
     20 C20      11.6966  -44.1158   -1.3057 C.2       1 <0>         0.6470
     21 C21      12.5616  -47.0328    0.6910 C.2       1 <0>         0.7725
     22 C22       5.0120  -47.8628    0.5359 C.3       1 <0>         0.3190
     23 C23      12.1531  -49.1485    1.9705 C.3       1 <0>         0.0506
     24 C24       9.2600  -44.1189   -1.8661 C.3       1 <0>         0.1325
     25 C25      10.8464  -48.6954   -0.0889 C.3       1 <0>         0.1358
     26 C26      12.7941  -45.0283   -0.7614 C.3       1 <0>         0.1172
     27 N1       10.4592  -44.7482   -1.3503 N.am      1 <0>        -0.5539
     28 N2       12.1870  -46.2985   -0.4343 N.am      1 <0>        -0.5876
     29 N3       11.8772  -48.2516    0.8530 N.am      1 <0>        -0.4441
     30 O1        8.4843  -49.8402   -2.3258 O.co2     1 <0>        -0.8004
     31 O2        8.3605  -51.1792   -0.5102 O.co2     1 <0>        -0.8235
     32 O3       11.9149  -42.9693   -1.6918 O.2       1 <0>        -0.6099
     33 O4       13.4357  -46.6392    1.4750 O.2       1 <0>        -0.6705
     34 O5        5.7278  -46.8507    1.2782 O.3       1 <0>        -0.3578
     35 O6        5.8811  -48.7891   -0.1474 O.3       1 <0>        -0.3145
     36 H1        6.6632  -41.3338    1.9300 H         1 <0>         0.1250
     37 H2       16.8639  -45.5662   -4.2487 H         1 <0>         0.1248
     38 H3        6.1449  -43.7341    1.5800 H         1 <0>         0.1263
     39 H4        8.3822  -40.2180    0.5300 H         1 <0>         0.1314
     40 H5       17.2617  -45.9105   -1.8193 H         1 <0>         0.1316
     41 H6       14.5916  -44.9746   -5.0721 H         1 <0>         0.1257
     42 H7        7.3359  -45.0199   -0.1645 H         1 <0>         0.1258
     43 H8        9.5782  -41.4944   -1.2179 H         1 <0>         0.1568
     44 H9       15.3966  -45.6653   -0.2141 H         1 <0>         0.1424
     45 H10      12.7200  -44.7259   -3.4753 H         1 <0>         0.1235
     46 H11      10.2982  -46.5678    1.4769 H         1 <0>         0.1275
     47 H12       8.0725  -45.6798    2.1347 H         1 <0>         0.1313
     48 H13       4.3777  -48.4240    1.2313 H         1 <0>         0.0502
     49 H14       4.3696  -47.3699   -0.2067 H         1 <0>         0.0506
     50 H15      11.5072  -48.9030    2.8174 H         1 <0>         0.0076
     51 H16      13.1983  -49.0538    2.2872 H         1 <0>         0.0288
     52 H17      11.9679  -50.1849    1.6751 H         1 <0>         0.1267
     53 H18       8.6139  -44.9036   -2.2791 H         1 <0>         0.0491
     54 H19       9.5531  -43.4700   -2.6984 H         1 <0>         0.0832
     55 H20      10.8592  -49.7905   -0.1093 H         1 <0>         0.1028
     56 H21      11.1310  -48.3479   -1.0884 H         1 <0>         0.0790
     57 H22      13.1584  -44.6225    0.1928 H         1 <0>         0.1059
     58 H23      10.3765  -45.7011   -1.0083 H         1 <0>         0.3043
     59 H24      11.4639  -46.6673   -1.0452 H         1 <0>         0.3255
@<TRIPOS>BOND
     1    1    3 ar
     2    1    4 ar
     3    2    5 ar
     4    2    6 ar
     5    3    7 ar
     6    4    8 ar
     7    5    9 ar
     8    6   10 ar
     9    7   14 ar
    10    8   14 ar
    11    9   15 ar
    12   10   15 ar
    13   11   12 ar
    14   11   16 ar
    15   12   17 ar
    16   13   16 ar
    17   13   18 ar
    18   13   19 1
    19   14   24 1
    20   15   26 1
    21   16   25 1
    22   17   18 ar
    23   17   34 1
    24   18   35 1
    25   19   30 1
    26   19   31 2
    27   20   26 1
    28   20   27 am
    29   20   32 2
    30   21   28 am
    31   21   29 am
    32   21   33 2
    33   22   34 1
    34   22   35 1
    35   23   29 1
    36   24   27 1
    37   25   29 1
    38   26   28 1
    39    1   36 1
    40    2   37 1
    41    3   38 1
    42    4   39 1
    43    5   40 1
    44    6   41 1
    45    7   42 1
    46    8   43 1
    47    9   44 1
    48   10   45 1
    49   11   46 1
    50   12   47 1
    51   22   48 1
    52   22   49 1
    53   23   50 1
    54   23   51 1
    55   23   52 1
    56   24   53 1
    57   24   54 1
    58   25   55 1
    59   25   56 1
    60   26   57 1
    61   27   58 1
    62   28   59 1
