@<TRIPOS>MOLECULE
AVX38673_1_3
   58    60     0     0     0
SMALL
USER_CHARGES

@<TRIPOS>ATOM
      1 C1       16.7539  -44.9397   -3.7140 C.ar      1 <0>        -0.1296
      2 C2       17.0117  -45.1519   -2.3581 C.ar      1 <0>        -0.1305
      3 C3       15.4359  -44.8290   -4.1685 C.ar      1 <0>        -0.1333
      4 C4       15.9514  -45.2534   -1.4569 C.ar      1 <0>        -0.0974
      5 C5       14.3756  -44.9305   -3.2673 C.ar      1 <0>        -0.1224
      6 C6       10.2736  -47.5121    0.2153 C.ar      1 <0>        -0.1342
      7 C7        9.0161  -46.9944    0.5406 C.ar      1 <0>        -0.1513
      8 C8        9.2587  -49.1226   -1.3056 C.ar      1 <0>        -0.0640
      9 C9       14.6334  -45.1427   -1.9114 C.ar      1 <0>        -0.1008
     10 C10      10.3943  -48.5700   -0.7025 C.ar      1 <0>        -0.1134
     11 C11       7.9109  -47.5578   -0.0689 C.ar      1 <0>         0.0398
     12 C12       8.0289  -48.5932   -0.9673 C.ar      1 <0>         0.0584
     13 C13       9.3595  -50.2305   -2.2693 C.2       1 <0>         0.9217
     14 C14      12.3349  -44.3169   -1.3014 C.2       1 <0>         0.6471
     15 C15      13.3411  -47.4994    0.1198 C.2       1 <0>         0.7724
     16 C16       5.9286  -48.1049   -0.7554 C.3       1 <0>         0.3189
     17 C17       7.3901  -42.1347    0.9937 C.3       1 <0>        -0.0920
     18 C18      13.0349  -49.8340    0.9774 C.3       1 <0>         0.0490
     19 C19      11.7677  -49.0917   -1.0189 C.3       1 <0>         0.1353
     20 C20       7.9181  -42.8242   -0.2544 C.3       1 <0>        -0.0805
     21 C21       9.3289  -43.3830   -0.0299 C.3       1 <0>        -0.1101
     22 C22       9.8420  -44.1749   -1.2278 C.3       1 <0>         0.0905
     23 C23      13.4849  -45.2529   -0.9351 C.3       1 <0>         0.1159
     24 N1       11.0976  -44.8423   -0.9513 N.am      1 <0>        -0.5593
     25 N2       12.9544  -46.5958   -0.8688 N.am      1 <0>        -0.5884
     26 N3       12.7354  -48.7662    0.0300 N.am      1 <0>        -0.4435
     27 O1        9.5908  -49.9567   -3.5069 O.co2     1 <0>        -0.8017
     28 O2        9.2128  -51.4369   -1.8433 O.co2     1 <0>        -0.8228
     29 O3       12.5062  -43.2437   -1.8764 O.2       1 <0>        -0.6087
     30 O4       14.1610  -47.2039    0.9979 O.2       1 <0>        -0.6707
     31 O5        6.6139  -47.1865    0.1225 O.3       1 <0>        -0.3576
     32 O6        6.8207  -49.0002   -1.4507 O.3       1 <0>        -0.3139
     33 H1       17.5793  -44.8610   -4.4158 H         1 <0>         0.1274
     34 H2       18.0379  -45.2383   -2.0044 H         1 <0>         0.1300
     35 H3       15.2351  -44.6646   -5.2243 H         1 <0>         0.1243
     36 H4       16.1618  -45.4195   -0.4023 H         1 <0>         0.1432
     37 H5       13.3520  -44.8432   -3.6305 H         1 <0>         0.1223
     38 H6       11.1621  -47.0873    0.6809 H         1 <0>         0.1276
     39 H7        8.9187  -46.1787    1.2476 H         1 <0>         0.1307
     40 H8        5.2261  -48.7001   -0.1610 H         1 <0>         0.0501
     41 H9        5.3601  -47.5274   -1.4966 H         1 <0>         0.0509
     42 H10       8.0516  -41.3169    1.2991 H         1 <0>         0.0287
     43 H11       6.3938  -41.7166    0.8030 H         1 <0>         0.0289
     44 H12       7.3098  -42.8398    1.8274 H         1 <0>         0.0377
     45 H13      12.3468  -49.7866    1.8253 H         1 <0>         0.0090
     46 H14      14.0607  -49.7361    1.3503 H         1 <0>         0.0288
     47 H15      12.9296  -50.8082    0.4929 H         1 <0>         0.1289
     48 H16      11.7503  -50.1809   -1.1331 H         1 <0>         0.1025
     49 H17      12.1385  -48.6715   -1.9599 H         1 <0>         0.0784
     50 H18       7.2344  -43.6356   -0.5323 H         1 <0>         0.0396
     51 H19       7.9205  -42.1057   -1.0821 H         1 <0>         0.0331
     52 H20      10.0205  -42.5608    0.1947 H         1 <0>         0.0433
     53 H21       9.3197  -44.0435    0.8460 H         1 <0>         0.0607
     54 H22       9.9890  -43.5275   -2.0984 H         1 <0>         0.0767
     55 H23       9.1187  -44.9507   -1.5004 H         1 <0>         0.0386
     56 H24      13.8247  -45.0212    0.0828 H         1 <0>         0.1048
     57 H25      11.0559  -45.7404   -0.4780 H         1 <0>         0.3046
     58 H26      12.2779  -46.8895   -1.5660 H         1 <0>         0.3259
@<TRIPOS>BOND
     1    1    2 ar
     2    1    3 ar
     3    2    4 ar
     4    3    5 ar
     5    4    9 ar
     6    5    9 ar
     7    6    7 ar
     8    6   10 ar
     9    7   11 ar
    10    8   10 ar
    11    8   12 ar
    12    8   13 1
    13    9   23 1
    14   10   19 1
    15   11   12 ar
    16   11   31 1
    17   12   32 1
    18   13   27 1
    19   13   28 2
    20   14   23 1
    21   14   24 am
    22   14   29 2
    23   15   25 am
    24   15   26 am
    25   15   30 2
    26   16   31 1
    27   16   32 1
    28   17   20 1
    29   18   26 1
    30   19   26 1
    31   20   21 1
    32   21   22 1
    33   22   24 1
    34   23   25 1
    35    1   33 1
    36    2   34 1
    37    3   35 1
    38    4   36 1
    39    5   37 1
    40    6   38 1
    41    7   39 1
    42   16   40 1
    43   16   41 1
    44   17   42 1
    45   17   43 1
    46   17   44 1
    47   18   45 1
    48   18   46 1
    49   18   47 1
    50   19   48 1
    51   19   49 1
    52   20   50 1
    53   20   51 1
    54   21   52 1
    55   21   53 1
    56   22   54 1
    57   22   55 1
    58   23   56 1
    59   24   57 1
    60   25   58 1
