@<TRIPOS>MOLECULE
AVX38785_1_14
   67    70     0     0     0
SMALL
USER_CHARGES

@<TRIPOS>ATOM
      1 C1       22.4200  -45.6989   -8.1805 C.ar      1 <0>        -0.1093
      2 C2       22.7792  -37.8256   -5.9545 C.ar      1 <0>        -0.1051
      3 C3       23.7571  -45.3370   -8.0162 C.ar      1 <0>        -0.1324
      4 C4       21.5355  -44.8291   -8.8186 C.ar      1 <0>        -0.1185
      5 C5       23.7001  -37.4330   -4.9832 C.ar      1 <0>        -0.1135
      6 C6       23.1001  -38.8483   -6.8472 C.ar      1 <0>        -0.0910
      7 C7       24.2097  -44.1056   -8.4897 C.ar      1 <0>        -0.1172
      8 C8       21.9880  -43.5977   -9.2921 C.ar      1 <0>        -0.0981
      9 C9       24.9421  -38.0631   -4.9045 C.ar      1 <0>        -0.1106
     10 C10      26.5943  -43.0685   -2.1588 C.ar      1 <0>        -0.1255
     11 C11      26.0297  -44.1937   -1.5580 C.ar      1 <0>        -0.1489
     12 C12      24.3421  -39.4784   -6.7685 C.ar      1 <0>        -0.0865
     13 C13      24.4608  -42.5232   -3.1551 C.ar      1 <0>        -0.0780
     14 C14      23.3252  -43.2359   -9.1277 C.ar      1 <0>        -0.1041
     15 C15      25.2631  -39.0858   -5.7972 C.ar      1 <0>        -0.0962
     16 C16      25.8095  -42.2315   -2.9523 C.ar      1 <0>        -0.1801
     17 C17      24.6784  -44.4818   -1.7524 C.ar      1 <0>         0.0976
     18 C18      23.9004  -43.6575   -2.5672 C.ar      1 <0>         0.0769
     19 C19      24.6518  -40.5427   -7.7135 C.2       1 <0>         0.6485
     20 C20      23.6278  -41.6241   -3.9795 C.2       1 <0>         0.9227
     21 C21      22.1516  -44.6583    2.5870 C.2       1 <0>         0.9110
     22 C22      22.2283  -45.2538   -2.5261 C.3       1 <0>         0.0868
     23 C23      22.7513  -45.6870   -1.1619 C.3       1 <0>         0.0975
     24 C24      27.6874  -41.9831   -5.5026 C.3       1 <0>         0.0942
     25 C25      23.8124  -41.9103   -9.6372 C.3       1 <0>         0.1249
     26 C26      26.6062  -39.7456   -5.6902 C.3       1 <0>         0.1566
     27 C27      26.4411  -41.0257   -3.5686 C.3       1 <0>         0.1886
     28 C28      22.6941  -45.3607    1.3368 C.3       1 <0>        -0.1995
     29 C29      22.1313  -44.9149    0.0010 C.3       1 <0>        -0.0531
     30 N1       23.6647  -40.8644   -8.6508 N.am      1 <0>        -0.5184
     31 N2       26.5453  -41.1092   -5.0505 N.4       1 <0>        -0.7172
     32 O1       23.0857  -40.6028   -3.4185 O.co2     1 <0>        -0.7301
     33 O2       22.5163  -45.1284    3.6992 O.co2     1 <0>        -0.8481
     34 O3       25.7417  -41.1370   -7.6564 O.2       1 <0>        -0.6511
     35 O4       23.4765  -41.8979   -5.2261 O.co2     1 <0>        -0.8972
     36 O5       21.4029  -43.6691    2.3418 O.co2     1 <0>        -0.8514
     37 O6       22.5739  -43.8969   -2.8095 O.3       1 <0>        -0.2984
     38 O7       24.1803  -45.5830   -1.1083 O.3       1 <0>        -0.2990
     39 H1       22.0674  -46.6573   -7.8115 H         1 <0>         0.1375
     40 H2       21.8121  -37.3348   -6.0163 H         1 <0>         0.1401
     41 H3       24.4455  -46.0142   -7.5191 H         1 <0>         0.1260
     42 H4       20.4943  -45.1104   -8.9458 H         1 <0>         0.1329
     43 H5       23.4503  -36.6359   -4.2891 H         1 <0>         0.1378
     44 H6       22.3743  -39.1449   -7.6003 H         1 <0>         0.1499
     45 H7       25.2531  -43.8318   -8.3565 H         1 <0>         0.1127
     46 H8       21.2918  -42.9262   -9.7878 H         1 <0>         0.1275
     47 H9       25.6526  -37.7493   -4.1442 H         1 <0>         0.1311
     48 H10      27.6490  -42.8551   -2.0061 H         1 <0>         0.1149
     49 H11      26.6509  -44.8463   -0.9497 H         1 <0>         0.1534
     50 H12      22.6624  -45.8760   -3.3224 H         1 <0>         0.0847
     51 H13      21.1319  -45.3535   -2.5932 H         1 <0>         0.0610
     52 H14      22.5104  -46.7827   -1.0110 H         1 <0>         0.0561
     53 H15      28.6147  -41.5323   -5.1445 H         1 <0>         0.0594
     54 H16      27.5406  -42.9749   -5.0705 H         1 <0>         0.1128
     55 H17      27.6660  -42.0231   -6.5932 H         1 <0>         0.0840
     56 H18      24.8712  -41.9676   -9.9118 H         1 <0>         0.0700
     57 H19      23.2600  -41.6065  -10.5327 H         1 <0>         0.0461
     58 H20      27.0603  -39.8815   -6.6777 H         1 <0>         0.1162
     59 H21      27.2949  -39.1452   -5.0860 H         1 <0>         0.0709
     60 H22      25.8687  -40.1154   -3.3489 H         1 <0>         0.1151
     61 H23      27.4613  -40.8709   -3.1943 H         1 <0>         0.0570
     62 H24      22.4587  -46.4254    1.4591 H         1 <0>         0.0212
     63 H25      23.7877  -45.2719    1.3339 H         1 <0>         0.0371
     64 H26      22.2910  -43.8521   -0.1720 H         1 <0>         0.0665
     65 H27      21.0580  -45.1007   -0.0267 H         1 <0>         0.0590
     66 H28      22.7686  -40.3897   -8.6120 H         1 <0>         0.3650
     67 H29      25.6828  -41.5570   -5.4013 H         1 <0>         0.5271
@<TRIPOS>BOND
     1    1    3 ar
     2    1    4 ar
     3    2    5 ar
     4    2    6 ar
     5    3    7 ar
     6    4    8 ar
     7    5    9 ar
     8    6   12 ar
     9    7   14 ar
    10    8   14 ar
    11    9   15 ar
    12   10   11 ar
    13   10   16 ar
    14   11   17 ar
    15   12   15 ar
    16   12   19 1
    17   13   16 ar
    18   13   18 ar
    19   13   20 1
    20   14   25 1
    21   15   26 1
    22   16   27 1
    23   17   18 ar
    24   17   38 1
    25   18   37 1
    26   19   30 am
    27   19   34 2
    28   20   32 1
    29   20   35 2
    30   21   28 1
    31   21   33 1
    32   21   36 2
    33   22   23 1
    34   22   37 1
    35   23   29 1
    36   23   38 1
    37   24   31 1
    38   25   30 1
    39   26   31 1
    40   27   31 1
    41   28   29 1
    42    1   39 1
    43    2   40 1
    44    3   41 1
    45    4   42 1
    46    5   43 1
    47    6   44 1
    48    7   45 1
    49    8   46 1
    50    9   47 1
    51   10   48 1
    52   11   49 1
    53   22   50 1
    54   22   51 1
    55   23   52 1
    56   24   53 1
    57   24   54 1
    58   24   55 1
    59   25   56 1
    60   25   57 1
    61   26   58 1
    62   26   59 1
    63   27   60 1
    64   27   61 1
    65   28   62 1
    66   28   63 1
    67   29   64 1
    68   29   65 1
    69   30   66 1
    70   31   67 1
