@<TRIPOS>MOLECULE
AVX38748_0_15
   67    70     0     0     0
SMALL
USER_CHARGES

@<TRIPOS>ATOM
      1 C1       26.3863  -44.8300    0.7912 C.ar      1 <0>        -0.1500
      2 C2       27.0119  -43.6405    0.3875 C.ar      1 <0>        -0.1337
      3 C3       25.1613  -45.2106    0.2412 C.ar      1 <0>        -0.1328
      4 C4       26.4214  -42.8139   -0.5716 C.ar      1 <0>        -0.0968
      5 C5       22.8965  -40.6977   -3.7362 C.ar      1 <0>        -0.1532
      6 C6       22.0056  -40.0662   -4.6044 C.ar      1 <0>        -0.1634
      7 C7       24.5743  -40.7373   -5.4767 C.ar      1 <0>        -0.0792
      8 C8       24.5901  -44.3918   -0.7190 C.ar      1 <0>        -0.1096
      9 C9       25.2116  -43.2026   -1.1251 C.ar      1 <0>        -0.0679
     10 C10      24.1772  -41.0377   -4.1735 C.ar      1 <0>        -0.1123
     11 C11      22.3974  -39.7779   -5.9120 C.ar      1 <0>         0.0612
     12 C12      23.6886  -40.0933   -6.3411 C.ar      1 <0>         0.0703
     13 C13      25.9348  -41.0891   -5.9324 C.2       1 <0>         0.9202
     14 C14      23.4012  -44.3996   -5.0070 C.2       1 <0>         0.6625
     15 C15      21.3096  -36.3165   -7.2422 C.2       1 <0>         0.9090
     16 C16      23.2777  -44.5796   -1.4200 C.3       1 <0>        -0.0555
     17 C17      23.3045  -38.8582   -8.2691 C.3       1 <0>         0.0894
     18 C18      24.3532  -42.4818   -2.1316 C.3       1 <0>        -0.0381
     19 C19      23.4435  -43.6384   -2.6326 C.3       1 <0>         0.1058
     20 C20      21.8405  -39.2453   -8.1074 C.3       1 <0>         0.0984
     21 C21      25.1112  -41.7253   -3.2134 C.3       1 <0>        -0.0098
     22 C22      24.2256  -45.2079   -5.9958 C.3       1 <0>        -0.1684
     23 C23      21.3255  -36.8500   -8.6796 C.3       1 <0>        -0.1925
     24 C24      20.9294  -38.3004   -8.8774 C.3       1 <0>        -0.0521
     25 C25      23.8033  -46.6727   -6.0971 C.3       1 <0>        -0.0655
     26 C26      22.3086  -46.8302   -6.3905 C.3       1 <0>        -0.1141
     27 C27      21.9254  -46.0982   -7.6685 C.3       1 <0>         0.1021
     28 N1       24.0023  -44.3603   -3.7591 N.am      1 <0>        -0.5359
     29 N2       20.4632  -46.2225   -7.8798 N.4       1 <0>        -0.8433
     30 O1       26.8644  -40.2076   -5.8291 O.co2     1 <0>        -0.8274
     31 O2       22.1562  -36.8119   -6.4490 O.co2     1 <0>        -0.8646
     32 O3       26.1367  -42.2630   -6.4150 O.co2     1 <0>        -0.8229
     33 O4       22.3485  -43.8424   -5.3058 O.2       1 <0>        -0.6236
     34 O5       20.4420  -35.4207   -7.0315 O.co2     1 <0>        -0.8533
     35 O6       24.1432  -39.8060   -7.6011 O.3       1 <0>        -0.2919
     36 O7       21.4718  -39.1759   -6.7229 O.3       1 <0>        -0.3192
     37 H1       26.8579  -45.4561    1.5437 H         1 <0>         0.1144
     38 H2       27.9618  -43.3562    0.8325 H         1 <0>         0.1257
     39 H3       24.6741  -46.1254    0.5611 H         1 <0>         0.1164
     40 H4       26.9054  -41.8885   -0.8647 H         1 <0>         0.1713
     41 H5       22.5813  -40.9251   -2.7213 H         1 <0>         0.0887
     42 H6       21.0071  -39.8127   -4.2587 H         1 <0>         0.1259
     43 H7       23.1104  -45.6208   -1.7129 H         1 <0>         0.0427
     44 H8       22.4668  -44.2388   -0.7674 H         1 <0>         0.0697
     45 H9       23.5906  -38.8548   -9.3261 H         1 <0>         0.0734
     46 H10      23.5121  -37.8615   -7.8582 H         1 <0>         0.0479
     47 H11      23.7297  -41.7675   -1.5693 H         1 <0>         0.1342
     48 H12      22.4718  -43.2622   -2.9721 H         1 <0>         0.0987
     49 H13      21.6710  -40.2736   -8.4528 H         1 <0>         0.0543
     50 H14      25.7614  -42.4176   -3.7609 H         1 <0>         0.0021
     51 H15      25.7757  -40.9866   -2.7501 H         1 <0>         0.0972
     52 H16      25.2862  -45.1365   -5.7279 H         1 <0>         0.0537
     53 H17      24.1005  -44.7347   -6.9775 H         1 <0>         0.0714
     54 H18      22.3569  -36.7346   -9.0361 H         1 <0>         0.0207
     55 H19      20.6967  -36.1993   -9.3002 H         1 <0>         0.0350
     56 H20      20.9506  -38.5871   -9.9273 H         1 <0>         0.0585
     57 H21      19.9167  -38.4594   -8.5079 H         1 <0>         0.0534
     58 H22      24.3909  -47.1859   -6.8679 H         1 <0>         0.0675
     59 H23      24.0297  -47.1652   -5.1434 H         1 <0>         0.0876
     60 H24      22.0651  -47.8956   -6.4869 H         1 <0>         0.0719
     61 H25      21.7168  -46.4424   -5.5530 H         1 <0>         0.0584
     62 H26      22.4109  -46.5289   -8.5492 H         1 <0>         0.1209
     63 H27      22.1478  -45.0288   -7.6107 H         1 <0>         0.1094
     64 H28      24.8681  -44.8658   -3.6054 H         1 <0>         0.3142
     65 H29      20.2385  -47.0769   -8.4013 H         1 <0>         0.4609
     66 H30      20.0999  -45.4239   -8.4115 H         1 <0>         0.4559
     67 H31      19.9641  -46.2589   -6.9843 H         1 <0>         0.4558
@<TRIPOS>BOND
     1    1    2 ar
     2    1    3 ar
     3    2    4 ar
     4    3    8 ar
     5    4    9 ar
     6    5    6 ar
     7    5   10 ar
     8    6   11 ar
     9    7   10 ar
    10    7   12 ar
    11    7   13 1
    12    8    9 ar
    13    8   16 1
    14    9   18 1
    15   10   21 1
    16   11   12 ar
    17   11   36 1
    18   12   35 1
    19   13   30 1
    20   13   32 2
    21   14   22 1
    22   14   28 am
    23   14   33 2
    24   15   23 1
    25   15   31 1
    26   15   34 2
    27   16   19 1
    28   17   20 1
    29   17   35 1
    30   18   19 1
    31   18   21 1
    32   19   28 1
    33   20   24 1
    34   20   36 1
    35   22   25 1
    36   23   24 1
    37   25   26 1
    38   26   27 1
    39   27   29 1
    40    1   37 1
    41    2   38 1
    42    3   39 1
    43    4   40 1
    44    5   41 1
    45    6   42 1
    46   16   43 1
    47   16   44 1
    48   17   45 1
    49   17   46 1
    50   18   47 1
    51   19   48 1
    52   20   49 1
    53   21   50 1
    54   21   51 1
    55   22   52 1
    56   22   53 1
    57   23   54 1
    58   23   55 1
    59   24   56 1
    60   24   57 1
    61   25   58 1
    62   25   59 1
    63   26   60 1
    64   26   61 1
    65   27   62 1
    66   27   63 1
    67   28   64 1
    68   29   65 1
    69   29   66 1
    70   29   67 1
