@<TRIPOS>MOLECULE
AVX38781_1_8
   77    80     0     0     0
SMALL
USER_CHARGES

@<TRIPOS>ATOM
      1 C1       21.2556  -48.4836   -5.5379 C.ar      1 <0>        -0.0963
      2 C2       20.8740  -48.7195   -6.8600 C.ar      1 <0>        -0.0874
      3 C3       21.6631  -47.2079   -5.1451 C.ar      1 <0>        -0.0889
      4 C4       20.8999  -47.6798   -7.7895 C.ar      1 <0>        -0.0639
      5 C5       21.0012  -42.0958   -7.9258 C.ar      1 <0>        -0.1232
      6 C6       20.6612  -41.0872   -7.0240 C.ar      1 <0>        -0.1532
      7 C7       21.6890  -46.1681   -6.0746 C.ar      1 <0>        -0.1007
      8 C8       23.3428  -41.4916   -7.7310 C.ar      1 <0>        -0.0867
      9 C9       21.3075  -46.4040   -7.3968 C.ar      1 <0>        -0.1055
     10 C10      22.3395  -42.2940   -8.2830 C.ar      1 <0>        -0.1909
     11 C11      21.6878  -40.2428   -6.5102 C.ar      1 <0>         0.1006
     12 C12      23.0048  -40.4919   -6.8187 C.ar      1 <0>         0.0745
     13 C13      25.6547  -46.2799   -8.1319 C.2       1 <0>        -0.1794
     14 C14      25.0376  -45.5507   -9.0715 C.2       1 <0>        -0.2061
     15 C15      22.1196  -44.8460   -5.6380 C.2       1 <0>         0.6552
     16 C16      24.7597  -41.7119   -8.1035 C.2       1 <0>         0.9196
     17 C17      20.9734  -37.5484   -1.7847 C.2       1 <0>         0.9108
     18 C18      24.5682  -42.9218   -0.2088 C.3       1 <0>        -0.0785
     19 C19      24.1641  -44.3126   -0.6910 C.3       1 <0>        -0.0747
     20 C20      23.8492  -41.8281   -0.9950 C.3       1 <0>        -0.0755
     21 C21      24.3771  -44.4718   -2.1944 C.3       1 <0>        -0.0726
     22 C22      24.0614  -41.9831   -2.4990 C.3       1 <0>        -0.0833
     23 C23      23.6281  -39.0132   -5.1388 C.3       1 <0>         0.0867
     24 C24      23.6478  -43.3784   -2.9893 C.3       1 <0>        -0.0898
     25 C25      22.2959  -38.3128   -5.4031 C.3       1 <0>         0.0992
     26 C26      21.3264  -45.3045   -8.4175 C.3       1 <0>         0.1621
     27 C27      22.6686  -43.3781   -9.2573 C.3       1 <0>         0.1847
     28 C28      23.5849  -45.6819   -9.4166 C.3       1 <0>         0.1411
     29 C29      21.4656  -38.2977   -3.0285 C.3       1 <0>        -0.1978
     30 C30      23.9195  -43.5270   -4.4848 C.3       1 <0>         0.0846
     31 C31      21.8785  -37.4536   -4.2187 C.3       1 <0>        -0.0525
     32 N1       23.3654  -44.7617   -4.9957 N.am      1 <0>        -0.5496
     33 N2       22.7076  -44.7315   -8.6403 N.4       1 <0>        -0.7067
     34 O1       25.4390  -42.5955   -7.4583 O.co2     1 <0>        -0.7831
     35 O2       21.1172  -38.1403   -0.6786 O.co2     1 <0>        -0.8476
     36 O3       21.3869  -43.8568   -5.8203 O.2       1 <0>        -0.6349
     37 O4       25.2590  -41.0112   -9.0582 O.co2     1 <0>        -0.8599
     38 O5       20.4876  -36.4040   -2.0269 O.co2     1 <0>        -0.8520
     39 O6       24.0358  -39.7508   -6.2951 O.3       1 <0>        -0.2966
     40 O7       21.2641  -39.2893   -5.6188 O.3       1 <0>        -0.3010
     41 H1       21.2361  -49.2934   -4.8139 H         1 <0>         0.1351
     42 H2       20.5579  -49.7133   -7.1656 H         1 <0>         0.1413
     43 H3       21.9588  -47.0367   -4.1121 H         1 <0>         0.1419
     44 H4       20.6011  -47.8744   -8.8172 H         1 <0>         0.1364
     45 H5       20.2145  -42.7195   -8.3487 H         1 <0>         0.1137
     46 H6       19.6156  -40.9338   -6.7579 H         1 <0>         0.1529
     47 H7       26.7133  -46.1345   -7.9238 H         1 <0>         0.1295
     48 H8       25.1206  -47.0284   -7.5568 H         1 <0>         0.1149
     49 H9       25.6179  -44.8098   -9.6158 H         1 <0>         0.1577
     50 H10      24.3394  -42.8202    0.8578 H         1 <0>         0.0388
     51 H11      25.6566  -42.7969   -0.3153 H         1 <0>         0.0390
     52 H12      24.7478  -45.0701   -0.1534 H         1 <0>         0.0346
     53 H13      23.1048  -44.4917   -0.4531 H         1 <0>         0.0346
     54 H14      22.7717  -41.8630   -0.7742 H         1 <0>         0.0376
     55 H15      24.2125  -40.8453   -0.6706 H         1 <0>         0.0538
     56 H16      25.4563  -44.4383   -2.4096 H         1 <0>         0.0395
     57 H17      24.0185  -45.4606   -2.5078 H         1 <0>         0.0404
     58 H18      23.4804  -41.2162   -3.0271 H         1 <0>         0.0631
     59 H19      25.1218  -41.8008   -2.7328 H         1 <0>         0.0413
     60 H20      24.4181  -38.2840   -4.9201 H         1 <0>         0.0845
     61 H21      23.5647  -39.7067   -4.2900 H         1 <0>         0.0589
     62 H22      22.5647  -43.4976   -2.8455 H         1 <0>         0.0459
     63 H23      22.3593  -37.6846   -6.3016 H         1 <0>         0.0601
     64 H24      20.9696  -45.6609   -9.3910 H         1 <0>         0.0802
     65 H25      20.6821  -44.4709   -8.1137 H         1 <0>         0.1061
     66 H26      21.9267  -43.4276  -10.0686 H         1 <0>         0.1210
     67 H27      23.6554  -43.2193   -9.7170 H         1 <0>         0.0672
     68 H28      23.2301  -46.6898   -9.1804 H         1 <0>         0.0704
     69 H29      23.3856  -45.4825  -10.4752 H         1 <0>         0.1138
     70 H30      20.6309  -38.9378   -3.3483 H         1 <0>         0.0215
     71 H31      22.2910  -38.9626   -2.7321 H         1 <0>         0.0362
     72 H32      24.9999  -43.5367   -4.6784 H         1 <0>         0.0684
     73 H33      23.4654  -42.7036   -5.0457 H         1 <0>         0.0519
     74 H34      22.7055  -36.7862   -3.9744 H         1 <0>         0.0649
     75 H35      21.0346  -36.8415   -4.5476 H         1 <0>         0.0599
     76 H36      23.8939  -45.6108   -4.8168 H         1 <0>         0.3446
     77 H37      23.1401  -44.6386   -7.7049 H         1 <0>         0.5176
@<TRIPOS>BOND
     1    1    2 ar
     2    1    3 ar
     3    2    4 ar
     4    3    7 ar
     5    4    9 ar
     6    5    6 ar
     7    5   10 ar
     8    6   11 ar
     9    7    9 ar
    10    7   15 1
    11    8   10 ar
    12    8   12 ar
    13    8   16 1
    14    9   26 1
    15   10   27 1
    16   11   12 ar
    17   11   40 1
    18   12   39 1
    19   13   14 2
    20   14   28 1
    21   15   32 am
    22   15   36 2
    23   16   34 1
    24   16   37 2
    25   17   29 1
    26   17   35 1
    27   17   38 2
    28   18   19 1
    29   18   20 1
    30   19   21 1
    31   20   22 1
    32   21   24 1
    33   22   24 1
    34   23   25 1
    35   23   39 1
    36   24   30 1
    37   25   31 1
    38   25   40 1
    39   26   33 1
    40   27   33 1
    41   28   33 1
    42   29   31 1
    43   30   32 1
    44    1   41 1
    45    2   42 1
    46    3   43 1
    47    4   44 1
    48    5   45 1
    49    6   46 1
    50   13   47 1
    51   13   48 1
    52   14   49 1
    53   18   50 1
    54   18   51 1
    55   19   52 1
    56   19   53 1
    57   20   54 1
    58   20   55 1
    59   21   56 1
    60   21   57 1
    61   22   58 1
    62   22   59 1
    63   23   60 1
    64   23   61 1
    65   24   62 1
    66   25   63 1
    67   26   64 1
    68   26   65 1
    69   27   66 1
    70   27   67 1
    71   28   68 1
    72   28   69 1
    73   29   70 1
    74   29   71 1
    75   30   72 1
    76   30   73 1
    77   31   74 1
    78   31   75 1
    79   32   76 1
    80   33   77 1
