@<TRIPOS>MOLECULE
AVX38782_1_12
   71    74     0     0     0
SMALL
USER_CHARGES

@<TRIPOS>ATOM
      1 C1       24.3783  -38.1352   -5.9139 C.ar      1 <0>        -0.0968
      2 C2       25.3276  -37.8839   -4.9231 C.ar      1 <0>        -0.0879
      3 C3       24.5010  -39.2633   -6.7259 C.ar      1 <0>        -0.0930
      4 C4       26.3997  -38.7606   -4.7444 C.ar      1 <0>        -0.0616
      5 C5       26.8318  -43.8749   -1.7325 C.ar      1 <0>        -0.1250
      6 C6       26.0784  -44.8896   -1.1414 C.ar      1 <0>        -0.1518
      7 C7       25.5730  -40.1400   -6.5472 C.ar      1 <0>        -0.1021
      8 C8       24.8333  -42.9790   -2.7618 C.ar      1 <0>        -0.0849
      9 C9       26.5223  -39.8889   -5.5565 C.ar      1 <0>        -0.1022
     10 C10      26.2109  -42.9243   -2.5460 C.ar      1 <0>        -0.1893
     11 C11      24.7028  -44.9531   -1.3680 C.ar      1 <0>         0.0996
     12 C12      24.0771  -43.9855   -2.1598 C.ar      1 <0>         0.0760
     13 C13      27.9802  -44.9702   -6.5478 C.2       1 <0>        -0.1817
     14 C14      28.3000  -43.7085   -6.2376 C.2       1 <0>        -0.2036
     15 C15      25.6774  -41.3100   -7.4098 C.2       1 <0>         0.6564
     16 C16      24.1781  -41.9644   -3.6149 C.2       1 <0>         0.9195
     17 C17      22.0517  -44.6516    2.9842 C.2       1 <0>         0.9111
     18 C18      22.3712  -45.1668   -9.0631 C.3       1 <0>        -0.0942
     19 C19      22.0747  -43.6978   -8.6908 C.3       1 <0>        -0.0927
     20 C20      23.3773  -44.6209  -10.0975 C.3       1 <0>        -0.0868
     21 C21      22.1546  -45.2712   -2.1253 C.3       1 <0>         0.0870
     22 C22      23.4871  -43.3613   -9.2124 C.3       1 <0>        -0.1167
     23 C23      22.5818  -45.7702   -0.7494 C.3       1 <0>         0.0987
     24 C24      27.6856  -40.8145   -5.3428 C.3       1 <0>         0.1637
     25 C25      27.0482  -41.8552   -3.1700 C.3       1 <0>         0.1869
     26 C26      28.3247  -43.1741   -4.8437 C.3       1 <0>         0.1415
     27 C27      22.4821  -45.4519    1.7491 C.3       1 <0>        -0.1984
     28 C28      24.5639  -43.4173   -8.1823 C.3       1 <0>         0.1000
     29 C29      22.0940  -44.8851    0.3962 C.3       1 <0>        -0.0534
     30 N1       24.5997  -42.2016   -7.4006 N.am      1 <0>        -0.5497
     31 N2       27.3088  -42.0818   -4.6172 N.4       1 <0>        -0.7133
     32 O1       23.6116  -40.9575   -3.0498 O.co2     1 <0>        -0.7672
     33 O2       22.3326  -45.1563    4.1064 O.co2     1 <0>        -0.8473
     34 O3       26.6961  -41.4965   -8.0970 O.2       1 <0>        -0.6354
     35 O4       24.1994  -42.1272   -4.8895 O.co2     1 <0>        -0.8674
     36 O5       21.4696  -43.5590    2.7180 O.co2     1 <0>        -0.8521
     37 O6       22.7265  -43.9744   -2.3922 O.3       1 <0>        -0.2968
     38 O7       24.0073  -45.9165   -0.6798 O.3       1 <0>        -0.3013
     39 H1       23.5437  -37.4522   -6.0535 H         1 <0>         0.1347
     40 H2       25.2325  -37.0047   -4.2916 H         1 <0>         0.1420
     41 H3       23.7551  -39.4480   -7.4951 H         1 <0>         0.1400
     42 H4       27.1341  -38.5554   -3.9698 H         1 <0>         0.1363
     43 H5       27.9041  -43.8363   -1.5567 H         1 <0>         0.1144
     44 H6       26.5709  -45.6311   -0.5164 H         1 <0>         0.1530
     45 H7       27.9851  -45.2998   -7.5809 H         1 <0>         0.1289
     46 H8       27.7110  -45.6922   -5.7843 H         1 <0>         0.1138
     47 H9       28.5675  -43.0258   -7.0405 H         1 <0>         0.1585
     48 H10      22.8227  -45.7405   -8.2978 H         1 <0>         0.0507
     49 H11      21.5297  -45.7320   -9.4716 H         1 <0>         0.0491
     50 H12      21.2674  -43.2473   -9.2820 H         1 <0>         0.0639
     51 H13      21.8998  -43.5524   -7.6210 H         1 <0>         0.0596
     52 H14      24.2894  -45.2103  -10.2291 H         1 <0>         0.0475
     53 H15      22.9343  -44.4286  -11.0825 H         1 <0>         0.0463
     54 H16      22.4818  -45.9714   -2.9084 H         1 <0>         0.0851
     55 H17      21.0578  -45.1791   -2.2044 H         1 <0>         0.0592
     56 H18      23.5403  -42.4229   -9.7769 H         1 <0>         0.0534
     57 H19      22.1532  -46.8058   -0.5876 H         1 <0>         0.0597
     58 H20      28.1298  -41.1193   -6.2967 H         1 <0>         0.0800
     59 H21      28.4699  -40.3335   -4.7485 H         1 <0>         0.1048
     60 H22      26.5675  -40.8704   -3.0923 H         1 <0>         0.1159
     61 H23      28.0308  -41.7815   -2.6859 H         1 <0>         0.0655
     62 H24      29.3030  -42.7353   -4.6250 H         1 <0>         0.0695
     63 H25      28.1152  -43.9475   -4.0971 H         1 <0>         0.1132
     64 H26      22.0111  -46.4387    1.8454 H         1 <0>         0.0217
     65 H27      23.5675  -45.6096    1.7958 H         1 <0>         0.0358
     66 H28      25.5427  -43.5388   -8.6563 H         1 <0>         0.0684
     67 H29      24.4005  -44.2526   -7.4939 H         1 <0>         0.0534
     68 H30      22.4921  -43.8827    0.2463 H         1 <0>         0.0641
     69 H31      21.0082  -44.8274    0.3178 H         1 <0>         0.0618
     70 H32      23.8203  -42.0329   -6.7729 H         1 <0>         0.3405
     71 H33      26.4281  -42.4090   -5.0474 H         1 <0>         0.5214
@<TRIPOS>BOND
     1    1    2 ar
     2    1    3 ar
     3    2    4 ar
     4    3    7 ar
     5    4    9 ar
     6    5    6 ar
     7    5   10 ar
     8    6   11 ar
     9    7    9 ar
    10    7   15 1
    11    8   10 ar
    12    8   12 ar
    13    8   16 1
    14    9   24 1
    15   10   25 1
    16   11   12 ar
    17   11   38 1
    18   12   37 1
    19   13   14 2
    20   14   26 1
    21   15   30 am
    22   15   34 2
    23   16   32 1
    24   16   35 2
    25   17   27 1
    26   17   33 1
    27   17   36 2
    28   18   19 1
    29   18   20 1
    30   19   22 1
    31   20   22 1
    32   21   23 1
    33   21   37 1
    34   22   28 1
    35   23   29 1
    36   23   38 1
    37   24   31 1
    38   25   31 1
    39   26   31 1
    40   27   29 1
    41   28   30 1
    42    1   39 1
    43    2   40 1
    44    3   41 1
    45    4   42 1
    46    5   43 1
    47    6   44 1
    48   13   45 1
    49   13   46 1
    50   14   47 1
    51   18   48 1
    52   18   49 1
    53   19   50 1
    54   19   51 1
    55   20   52 1
    56   20   53 1
    57   21   54 1
    58   21   55 1
    59   22   56 1
    60   23   57 1
    61   24   58 1
    62   24   59 1
    63   25   60 1
    64   25   61 1
    65   26   62 1
    66   26   63 1
    67   27   64 1
    68   27   65 1
    69   28   66 1
    70   28   67 1
    71   29   68 1
    72   29   69 1
    73   30   70 1
    74   31   71 1
