@<TRIPOS>MOLECULE
AVX38672_0_38
   58    60     0     0     0
SMALL
USER_CHARGES

@<TRIPOS>ATOM
      1 C1       12.2038  -49.5676    0.1469 C.ar      1 <0>        -0.1300
      2 C2       13.5232  -49.3812   -0.2672 C.ar      1 <0>        -0.1347
      3 C3       11.3000  -48.5052    0.0966 C.ar      1 <0>        -0.1300
      4 C4       13.9375  -48.1323   -0.7326 C.ar      1 <0>        -0.1194
      5 C5       11.7144  -47.2564   -0.3688 C.ar      1 <0>        -0.0946
      6 C6       17.5983  -48.1284   -3.8709 C.ar      1 <0>        -0.1338
      7 C7       17.9616  -49.3346   -4.4777 C.ar      1 <0>        -0.1507
      8 C8       19.8664  -47.2759   -4.1068 C.ar      1 <0>        -0.0636
      9 C9       13.0331  -47.0699   -0.7834 C.ar      1 <0>        -0.1025
     10 C10      18.5451  -47.1051   -3.6866 C.ar      1 <0>        -0.1102
     11 C11      19.2726  -49.4780   -4.8836 C.ar      1 <0>         0.0384
     12 C12      20.1994  -48.4763   -4.7031 C.ar      1 <0>         0.0594
     13 C13      20.8756  -46.2193   -3.9247 C.2       1 <0>         0.9214
     14 C14      12.3219  -44.9132   -1.8643 C.2       1 <0>         0.6593
     15 C15      15.8130  -45.4157   -2.0951 C.2       1 <0>         0.7661
     16 C16      21.1731  -50.1517   -5.6699 C.3       1 <0>         0.3189
     17 C17       9.8825  -42.8864    0.1614 C.3       1 <0>        -0.1071
     18 C18      10.8690  -42.2196   -2.0451 C.3       1 <0>        -0.1095
     19 C19       9.4188  -44.2595   -1.8826 C.3       1 <0>        -0.1084
     20 C20      16.1903  -45.5497   -4.5685 C.3       1 <0>         0.0459
     21 C21      18.1053  -45.8272   -3.0290 C.3       1 <0>         0.1298
     22 C22      13.4820  -45.7170   -1.2874 C.3       1 <0>         0.1124
     23 C23      10.4650  -43.4033   -1.1596 C.3       1 <0>         0.1299
     24 N1       11.6336  -44.2096   -0.8848 N.am      1 <0>        -0.5681
     25 N2       14.5018  -45.8332   -2.3055 N.am      1 <0>        -0.5840
     26 N3       16.6732  -45.5915   -3.1947 N.am      1 <0>        -0.4364
     27 O1       21.0382  -45.3494   -4.8606 O.co2     1 <0>        -0.8004
     28 O2       21.5625  -46.1995   -2.8360 O.co2     1 <0>        -0.8278
     29 O3       12.0254  -44.9338   -3.0572 O.2       1 <0>        -0.6183
     30 O4       16.1796  -44.9214   -1.0244 O.2       1 <0>        -0.6679
     31 O5       19.7784  -50.5647   -5.5281 O.3       1 <0>        -0.3581
     32 O6       21.4294  -48.8207   -5.1734 O.3       1 <0>        -0.3145
     33 H1       11.8808  -50.5398    0.5090 H         1 <0>         0.1228
     34 H2       14.2272  -50.2083   -0.2273 H         1 <0>         0.1265
     35 H3       10.2736  -48.6501    0.4203 H         1 <0>         0.1317
     36 H4       14.9672  -47.9961   -1.0530 H         1 <0>         0.1215
     37 H5       11.0030  -46.4342   -0.4047 H         1 <0>         0.1451
     38 H6       16.5717  -47.9880   -3.5409 H         1 <0>         0.1270
     39 H7       17.2348  -50.1262   -4.6218 H         1 <0>         0.1308
     40 H8       21.8298  -50.8559   -5.1457 H         1 <0>         0.0494
     41 H9       21.4101  -50.1798   -6.7395 H         1 <0>         0.0517
     42 H10       9.5852  -43.7161    0.8137 H         1 <0>         0.0359
     43 H11      10.6097  -42.2740    0.7059 H         1 <0>         0.0389
     44 H12       8.9892  -42.2740   -0.0125 H         1 <0>         0.0443
     45 H13      11.2892  -42.5648   -2.9973 H         1 <0>         0.0714
     46 H14      11.6339  -41.6038   -1.5577 H         1 <0>         0.0387
     47 H15      10.0103  -41.5756   -2.2680 H         1 <0>         0.0307
     48 H16       9.8097  -44.6430   -2.8326 H         1 <0>         0.0726
     49 H17       9.1147  -45.1178   -1.2729 H         1 <0>         0.0334
     50 H18       8.5203  -43.6745   -2.1136 H         1 <0>         0.0312
     51 H19      16.2352  -44.5260   -4.9512 H         1 <0>         0.0191
     52 H20      15.1552  -45.8982   -4.6161 H         1 <0>         0.0178
     53 H21      16.8057  -46.1922   -5.2053 H         1 <0>         0.1293
     54 H22      18.3210  -45.8515   -1.9554 H         1 <0>         0.1057
     55 H23      18.6366  -44.9658   -3.4480 H         1 <0>         0.0789
     56 H24      13.9448  -45.1393   -0.4779 H         1 <0>         0.0983
     57 H25      11.9538  -44.2548    0.0780 H         1 <0>         0.3107
     58 H26      14.2537  -46.2322   -3.2032 H         1 <0>         0.3251
@<TRIPOS>BOND
     1    1    2 ar
     2    1    3 ar
     3    2    4 ar
     4    3    5 ar
     5    4    9 ar
     6    5    9 ar
     7    6    7 ar
     8    6   10 ar
     9    7   11 ar
    10    8   10 ar
    11    8   12 ar
    12    8   13 1
    13    9   22 1
    14   10   21 1
    15   11   12 ar
    16   11   31 1
    17   12   32 1
    18   13   27 1
    19   13   28 2
    20   14   22 1
    21   14   24 am
    22   14   29 2
    23   15   25 am
    24   15   26 am
    25   15   30 2
    26   16   31 1
    27   16   32 1
    28   17   23 1
    29   18   23 1
    30   19   23 1
    31   20   26 1
    32   21   26 1
    33   22   25 1
    34   23   24 1
    35    1   33 1
    36    2   34 1
    37    3   35 1
    38    4   36 1
    39    5   37 1
    40    6   38 1
    41    7   39 1
    42   16   40 1
    43   16   41 1
    44   17   42 1
    45   17   43 1
    46   17   44 1
    47   18   45 1
    48   18   46 1
    49   18   47 1
    50   19   48 1
    51   19   49 1
    52   19   50 1
    53   20   51 1
    54   20   52 1
    55   20   53 1
    56   21   54 1
    57   21   55 1
    58   22   56 1
    59   24   57 1
    60   25   58 1
