@<TRIPOS>MOLECULE
AVX38787_1_15
   73    76     0     0     0
SMALL
USER_CHARGES

@<TRIPOS>ATOM
      1 C1       27.9037  -45.0933   -3.4503 C.ar      1 <0>        -0.1101
      2 C2       28.3480  -43.7814   -3.2847 C.ar      1 <0>        -0.1088
      3 C3       26.6776  -45.4872   -2.9147 C.ar      1 <0>        -0.1026
      4 C4       27.5662  -42.8635   -2.5833 C.ar      1 <0>        -0.1053
      5 C5       23.0195  -38.9808   -3.5189 C.ar      1 <0>        -0.1396
      6 C6       21.9250  -38.4579   -4.2078 C.ar      1 <0>        -0.1538
      7 C7       25.8959  -44.5694   -2.2132 C.ar      1 <0>        -0.1271
      8 C8       22.9729  -40.9470   -4.9252 C.ar      1 <0>        -0.0597
      9 C9       26.3401  -43.2575   -2.0475 C.ar      1 <0>        -0.1000
     10 C10      23.5392  -40.2262   -3.8736 C.ar      1 <0>        -0.1999
     11 C11      21.3496  -39.1846   -5.2504 C.ar      1 <0>         0.0983
     12 C12      21.8871  -40.4184   -5.6234 C.ar      1 <0>         0.0673
     13 C13      24.6203  -45.0076   -1.6635 C.2       1 <0>         0.6476
     14 C14      23.5329  -42.2603   -5.3046 C.2       1 <0>         0.9146
     15 C15      21.3714  -36.4168   -7.2829 C.2       1 <0>         0.9108
     16 C16      20.5114  -48.9764   -3.9130 C.3       1 <0>        -0.0779
     17 C17      20.1494  -48.6520   -2.4672 C.3       1 <0>        -0.0825
     18 C18      21.9625  -48.6214   -4.2209 C.3       1 <0>        -0.0774
     19 C19      20.4550  -47.1961   -2.1227 C.3       1 <0>        -0.0769
     20 C20      22.2712  -47.1655   -3.8793 C.3       1 <0>        -0.0693
     21 C21      20.0406  -40.7587   -6.9745 C.3       1 <0>         0.0860
     22 C22      21.9165  -46.8376   -2.4229 C.3       1 <0>        -0.0922
     23 C23      19.9669  -39.2476   -7.1563 C.3       1 <0>         0.0980
     24 C24      23.2357  -41.2633   -1.1634 C.3       1 <0>         0.0570
     25 C25      25.5202  -42.2499   -1.2971 C.3       1 <0>         0.1414
     26 C26      24.7072  -40.7610   -3.1105 C.3       1 <0>         0.1854
     27 C27      20.7536  -37.2213   -8.4326 C.3       1 <0>        -0.1977
     28 C28      22.1835  -45.3641   -2.1210 C.3       1 <0>         0.0835
     29 C29      20.8109  -38.7325   -8.3205 C.3       1 <0>        -0.0536
     30 N1       23.5180  -44.9827   -2.5239 N.am      1 <0>        -0.5534
     31 N2       24.3263  -41.7612   -2.0770 N.4       1 <0>        -0.6775
     32 O1       24.5431  -42.2910   -6.0983 O.co2     1 <0>        -0.8426
     33 O2       22.6177  -36.5276   -7.1246 O.co2     1 <0>        -0.8482
     34 O3       24.5361  -45.3628   -0.4758 O.2       1 <0>        -0.6046
     35 O4       22.9883  -43.3218   -4.8269 O.co2     1 <0>        -0.7787
     36 O5       20.5400  -35.7196   -6.6333 O.co2     1 <0>        -0.8529
     37 O6       21.3880  -41.1633   -6.6591 O.3       1 <0>        -0.2897
     38 O7       20.3393  -38.5708   -5.9484 O.3       1 <0>        -0.3048
     39 H1       28.5126  -45.8083   -3.9962 H         1 <0>         0.1468
     40 H2       29.3032  -43.4752   -3.7010 H         1 <0>         0.1489
     41 H3       26.3425  -46.5125   -3.0498 H         1 <0>         0.1508
     42 H4       27.9218  -41.8439   -2.4596 H         1 <0>         0.1492
     43 H5       23.4579  -38.4118   -2.7033 H         1 <0>         0.1012
     44 H6       21.5209  -37.4913   -3.9195 H         1 <0>         0.1495
     45 H7       20.3433  -50.0420   -4.1055 H         1 <0>         0.0543
     46 H8       19.8492  -48.4212   -4.5883 H         1 <0>         0.0416
     47 H9       19.0858  -48.8550   -2.2996 H         1 <0>         0.0688
     48 H10      20.7104  -49.3112   -1.7936 H         1 <0>         0.0496
     49 H11      22.6285  -49.2791   -3.6492 H         1 <0>         0.0426
     50 H12      22.1689  -48.8026   -5.2816 H         1 <0>         0.0403
     51 H13      19.7847  -46.5426   -2.6956 H         1 <0>         0.0452
     52 H14      20.2376  -47.0224   -1.0623 H         1 <0>         0.0253
     53 H15      23.3351  -46.9701   -4.0581 H         1 <0>         0.0376
     54 H16      21.7099  -46.5097   -4.5570 H         1 <0>         0.0409
     55 H17      19.3740  -41.0836   -6.1623 H         1 <0>         0.0881
     56 H18      19.7308  -41.2952   -7.8871 H         1 <0>         0.0533
     57 H19      22.5646  -47.4245   -1.7634 H         1 <0>         0.0485
     58 H20      18.8920  -38.9576   -7.3600 H         1 <0>         0.0655
     59 H21      23.6176  -40.3891   -0.6329 H         1 <0>         0.0983
     60 H22      22.3749  -41.0023   -1.7821 H         1 <0>         0.1860
     61 H23      22.9896  -42.0678   -0.4679 H         1 <0>         0.0675
     62 H24      25.1343  -42.6706   -0.3624 H         1 <0>         0.1231
     63 H25      26.1145  -41.3651   -1.0444 H         1 <0>         0.0993
     64 H26      25.4264  -41.2585   -3.7734 H         1 <0>         0.0685
     65 H27      25.2438  -39.9606   -2.5848 H         1 <0>         0.1419
     66 H28      21.3046  -36.9331   -9.3366 H         1 <0>         0.0232
     67 H29      19.7163  -36.8925   -8.5705 H         1 <0>         0.0349
     68 H30      22.0902  -45.1694   -1.0485 H         1 <0>         0.0560
     69 H31      21.4775  -44.7241   -2.6580 H         1 <0>         0.0743
     70 H32      21.8299  -39.0909   -8.1870 H         1 <0>         0.0614
     71 H33      20.4139  -39.1846   -9.2289 H         1 <0>         0.0626
     72 H34      23.6307  -44.6238   -3.4661 H         1 <0>         0.3178
     73 H35      23.9402  -42.5859   -2.5653 H         1 <0>         0.4341
@<TRIPOS>BOND
     1    1    2 ar
     2    1    3 ar
     3    2    4 ar
     4    3    7 ar
     5    4    9 ar
     6    5    6 ar
     7    5   10 ar
     8    6   11 ar
     9    7    9 ar
    10    7   13 1
    11    8   10 ar
    12    8   12 ar
    13    8   14 1
    14    9   25 1
    15   10   26 1
    16   11   12 ar
    17   11   38 1
    18   12   37 1
    19   13   30 am
    20   13   34 2
    21   14   32 1
    22   14   35 2
    23   15   27 1
    24   15   33 1
    25   15   36 2
    26   16   17 1
    27   16   18 1
    28   17   19 1
    29   18   20 1
    30   19   22 1
    31   20   22 1
    32   21   23 1
    33   21   37 1
    34   22   28 1
    35   23   29 1
    36   23   38 1
    37   24   31 1
    38   25   31 1
    39   26   31 1
    40   27   29 1
    41   28   30 1
    42    1   39 1
    43    2   40 1
    44    3   41 1
    45    4   42 1
    46    5   43 1
    47    6   44 1
    48   16   45 1
    49   16   46 1
    50   17   47 1
    51   17   48 1
    52   18   49 1
    53   18   50 1
    54   19   51 1
    55   19   52 1
    56   20   53 1
    57   20   54 1
    58   21   55 1
    59   21   56 1
    60   22   57 1
    61   23   58 1
    62   24   59 1
    63   24   60 1
    64   24   61 1
    65   25   62 1
    66   25   63 1
    67   26   64 1
    68   26   65 1
    69   27   66 1
    70   27   67 1
    71   28   68 1
    72   28   69 1
    73   29   70 1
    74   29   71 1
    75   30   72 1
    76   31   73 1
