@<TRIPOS>MOLECULE
AVX38780_0_4
   75    78     0     0     0
SMALL
USER_CHARGES

@<TRIPOS>ATOM
      1 C1        5.9253  -44.4035    5.5972 C.ar      1 <0>        -0.1058
      2 C2        5.2836  -44.0250    4.4167 C.ar      1 <0>        -0.0980
      3 C3        6.5581  -45.6482    5.6832 C.ar      1 <0>        -0.1029
      4 C4        5.2746  -44.8912    3.3223 C.ar      1 <0>        -0.0850
      5 C5        9.8598  -46.8439    0.5833 C.ar      1 <0>        -0.1202
      6 C6        9.2287  -49.8904    2.6908 C.ar      1 <0>        -0.0827
      7 C7       11.3969  -49.2116    3.5144 C.ar      1 <0>        -0.0831
      8 C8       11.0838  -46.8981   -0.0841 C.ar      1 <0>        -0.1494
      9 C9        9.8038  -50.2483    1.4716 C.ar      1 <0>        -0.1453
     10 C10      11.9721  -49.5696    2.2952 C.ar      1 <0>        -0.2226
     11 C11       6.5491  -46.5142    4.5889 C.ar      1 <0>        -0.1133
     12 C12       9.3360  -44.7584   -0.5378 C.ar      1 <0>        -0.0867
     13 C13      10.0252  -49.3720    3.7121 C.ar      1 <0>        -0.1703
     14 C14       5.9073  -46.1358    3.4083 C.ar      1 <0>        -0.0930
     15 C15       8.9897  -45.7727    0.3609 C.ar      1 <0>        -0.1831
     16 C16      11.4466  -45.8305   -0.9569 C.ar      1 <0>         0.0949
     17 C17      10.5537  -44.8191   -1.2160 C.ar      1 <0>         0.0745
     18 C18      11.1759  -50.0877    1.2740 C.ar      1 <0>         0.1272
     19 C19       5.1302  -48.2978   -1.1616 C.2       1 <0>        -0.1817
     20 C20       6.1827  -47.5797   -0.7500 C.2       1 <0>        -0.2043
     21 C21       7.2167  -47.8083    4.7061 C.2       1 <0>         0.6614
     22 C22       8.4072  -43.6316   -0.7787 C.2       1 <0>         0.9199
     23 C23      16.8567  -45.1579   -3.1102 C.2       1 <0>         0.9111
     24 C24      11.9087  -44.1408   -2.9771 C.3       1 <0>         0.0872
     25 C25      13.0664  -44.7326   -2.1828 C.3       1 <0>         0.0999
     26 C26      13.1488  -50.2806   -0.0394 C.3       1 <0>         0.1124
     27 C27       9.4062  -48.9870    5.0245 C.3       1 <0>         0.1381
     28 C28       5.8814  -47.0478    2.2163 C.3       1 <0>         0.1581
     29 C29       7.6900  -45.7413    1.0976 C.3       1 <0>         0.1849
     30 C30       7.1380  -48.0366    0.3039 C.3       1 <0>         0.1469
     31 C31      15.5624  -45.0258   -2.2991 C.3       1 <0>        -0.1984
     32 C32      14.2616  -45.0224   -3.0786 C.3       1 <0>        -0.0543
     33 N1        8.5999  -47.7885    4.9116 N.am      1 <0>        -0.5539
     34 N2        7.1978  -47.0973    1.4832 N.4       1 <0>        -0.7195
     35 O1        7.4728  -43.7831   -1.6481 O.co2     1 <0>        -0.7487
     36 O2       17.1264  -44.2064   -3.8979 O.co2     1 <0>        -0.8480
     37 O3        6.5687  -48.8675    4.6038 O.2       1 <0>        -0.6165
     38 O4        8.5690  -42.5430   -0.1099 O.co2     1 <0>        -0.8677
     39 O5       17.5105  -46.2178   -2.8739 O.co2     1 <0>        -0.8524
     40 O6       10.8283  -43.8051   -2.1010 O.3       1 <0>        -0.2998
     41 O7       12.6598  -45.9755   -1.5816 O.3       1 <0>        -0.3008
     42 O8       11.7375  -50.4383    0.0850 O.3       1 <0>        -0.3163
     43 H1        5.9320  -43.7294    6.4498 H         1 <0>         0.1392
     44 H2        4.7900  -43.0564    4.3505 H         1 <0>         0.1444
     45 H3        7.0542  -45.9320    6.6087 H         1 <0>         0.1442
     46 H4        4.7713  -44.5867    2.4075 H         1 <0>         0.1472
     47 H5        9.5953  -47.6398    1.2792 H         1 <0>         0.1175
     48 H6        8.1593  -50.0187    2.8363 H         1 <0>         0.1452
     49 H7       12.0254  -48.8076    4.3043 H         1 <0>         0.1419
     50 H8       11.7594  -47.7312    0.1016 H         1 <0>         0.1540
     51 H9        9.1789  -50.6518    0.6793 H         1 <0>         0.1648
     52 H10      13.0410  -49.4411    2.1471 H         1 <0>         0.1346
     53 H11       4.4744  -47.9126   -1.9358 H         1 <0>         0.1251
     54 H12       4.9051  -49.2751   -0.7390 H         1 <0>         0.1152
     55 H13       6.3669  -46.6079   -1.2101 H         1 <0>         0.1443
     56 H14      12.2162  -43.2172   -3.4866 H         1 <0>         0.0851
     57 H15      11.5347  -44.8426   -3.7360 H         1 <0>         0.0586
     58 H16      13.3730  -44.0475   -1.3797 H         1 <0>         0.0588
     59 H17      13.4653  -50.5963   -1.0364 H         1 <0>         0.0738
     60 H18      13.6504  -50.8858    0.7219 H         1 <0>         0.0300
     61 H19      13.4045  -49.2242    0.1047 H         1 <0>         0.0276
     62 H20       8.7657  -49.7959    5.4010 H         1 <0>         0.0568
     63 H21      10.1748  -48.8019    5.7822 H         1 <0>         0.0734
     64 H22       5.6442  -48.0808    2.5091 H         1 <0>         0.0781
     65 H23       5.1286  -46.7237    1.4886 H         1 <0>         0.1066
     66 H24       7.7693  -45.1624    2.0272 H         1 <0>         0.1101
     67 H25       6.8971  -45.2814    0.4926 H         1 <0>         0.0731
     68 H26       8.1529  -48.0846   -0.1024 H         1 <0>         0.1261
     69 H27       6.8763  -49.0240    0.7083 H         1 <0>         0.0735
     70 H28      15.6338  -44.0663   -1.7655 H         1 <0>         0.0213
     71 H29      15.5444  -45.8205   -1.5393 H         1 <0>         0.0367
     72 H30      14.0875  -45.9753   -3.5813 H         1 <0>         0.0650
     73 H31      14.2900  -44.2384   -3.8387 H         1 <0>         0.0606
     74 H32       9.0883  -46.8957    4.9243 H         1 <0>         0.3269
     75 H33       7.8804  -47.5059    2.1436 H         1 <0>         0.5277
@<TRIPOS>BOND
     1    1    2 ar
     2    1    3 ar
     3    2    4 ar
     4    3   11 ar
     5    4   14 ar
     6    5    8 ar
     7    5   15 ar
     8    6    9 ar
     9    6   13 ar
    10    7   10 ar
    11    7   13 ar
    12    8   16 ar
    13    9   18 ar
    14   10   18 ar
    15   11   14 ar
    16   11   21 1
    17   12   15 ar
    18   12   17 ar
    19   12   22 1
    20   13   27 1
    21   14   28 1
    22   15   29 1
    23   16   17 ar
    24   16   41 1
    25   17   40 1
    26   18   42 1
    27   19   20 2
    28   20   30 1
    29   21   33 am
    30   21   37 2
    31   22   35 1
    32   22   38 2
    33   23   31 1
    34   23   36 1
    35   23   39 2
    36   24   25 1
    37   24   40 1
    38   25   32 1
    39   25   41 1
    40   26   42 1
    41   27   33 1
    42   28   34 1
    43   29   34 1
    44   30   34 1
    45   31   32 1
    46    1   43 1
    47    2   44 1
    48    3   45 1
    49    4   46 1
    50    5   47 1
    51    6   48 1
    52    7   49 1
    53    8   50 1
    54    9   51 1
    55   10   52 1
    56   19   53 1
    57   19   54 1
    58   20   55 1
    59   24   56 1
    60   24   57 1
    61   25   58 1
    62   26   59 1
    63   26   60 1
    64   26   61 1
    65   27   62 1
    66   27   63 1
    67   28   64 1
    68   28   65 1
    69   29   66 1
    70   29   67 1
    71   30   68 1
    72   30   69 1
    73   31   70 1
    74   31   71 1
    75   32   72 1
    76   32   73 1
    77   33   74 1
    78   34   75 1
