@<TRIPOS>MOLECULE
AVX40811_0_6
   51    53     0     0     0
SMALL
USER_CHARGES

@<TRIPOS>ATOM
      1 C1       16.6590  -45.5536   -4.5775 C.ar      1 <0>        -0.2715
      2 C2       15.3778  -45.1412   -4.2288 C.ar      1 <0>        -0.0459
      3 C3        9.2300  -47.3272    0.0908 C.ar      1 <0>        -0.1489
      4 C4        8.7180  -47.8166    1.2962 C.ar      1 <0>        -0.1404
      5 C5       17.6217  -45.5942   -3.5808 C.ar      1 <0>         0.3969
      6 C6       16.1346  -44.8618   -1.9903 C.ar      1 <0>         0.4352
      7 C7       15.1023  -44.7868   -2.9126 C.ar      1 <0>        -0.2426
      8 C8       11.4497  -47.1231    1.0690 C.ar      1 <0>        -0.0965
      9 C9       10.5881  -46.9826   -0.0223 C.ar      1 <0>        -0.0667
     10 C10       9.5897  -47.9458    2.3585 C.ar      1 <0>         0.0333
     11 C11      10.9190  -47.6086    2.2479 C.ar      1 <0>         0.0645
     12 C12      13.7438  -44.3415   -2.5080 C.2       1 <0>         0.6684
     13 C13      12.8750  -46.7692    0.9751 C.2       1 <0>         0.9260
     14 C14      10.5525  -48.3150    4.2624 C.3       1 <0>         0.3185
     15 C15       9.5827  -42.8750    0.5342 C.3       1 <0>        -0.0885
     16 C16       7.4365  -44.1272    0.2488 C.3       1 <0>        -0.0886
     17 C17      11.0932  -46.4578   -1.3468 C.3       1 <0>        -0.0373
     18 C18       9.3343  -44.6027   -1.3272 C.3       1 <0>        -0.0663
     19 C19      11.3139  -44.5260   -2.9737 C.3       1 <0>         0.1038
     20 C20       8.9605  -44.2074    0.1167 C.3       1 <0>        -0.0690
     21 C21      10.8245  -44.9461   -1.5740 C.3       1 <0>        -0.0886
     22 N1       17.3916  -45.2578   -2.2916 N.ar      1 <0>        -0.6743
     23 N2       12.6837  -44.8777   -3.2297 N.am      1 <0>        -0.5420
     24 O1       13.6982  -47.6366    0.4964 O.co2     1 <0>        -0.7876
     25 O2       13.6261  -43.5283   -1.5952 O.2       1 <0>        -0.6605
     26 O3       13.2521  -45.6040    1.3751 O.co2     1 <0>        -0.8470
     27 O4        9.2736  -48.4030    3.6021 O.3       1 <0>        -0.3563
     28 O5       11.6014  -47.8120    3.4085 O.3       1 <0>        -0.3120
     29 H1       16.8967  -45.8349   -5.5971 H         1 <0>         0.1318
     30 H2       14.6021  -45.0993   -4.9894 H         1 <0>         0.1534
     31 H3        8.5654  -47.2148   -0.7631 H         1 <0>         0.1193
     32 H4        7.6715  -48.0835    1.3876 H         1 <0>         0.1316
     33 H5       18.6363  -45.9088   -3.8012 H         1 <0>         0.0075
     34 H6       15.9809  -44.5981   -0.9480 H         1 <0>         0.0635
     35 H7       10.4550  -47.6498    5.1277 H         1 <0>         0.0555
     36 H8       10.8344  -49.3150    4.6169 H         1 <0>         0.0513
     37 H9        9.2668  -42.0624   -0.1316 H         1 <0>         0.0304
     38 H10       9.2853  -42.6110    1.5551 H         1 <0>         0.0202
     39 H11      10.6755  -42.9234    0.5198 H         1 <0>         0.0430
     40 H12       7.0261  -43.3633   -0.4230 H         1 <0>         0.0267
     41 H13       7.1487  -43.8612    1.2717 H         1 <0>         0.0234
     42 H14       6.9648  -45.0843    0.0021 H         1 <0>         0.0315
     43 H15      10.6071  -47.0438   -2.1383 H         1 <0>         0.0391
     44 H16      12.1664  -46.6679   -1.4413 H         1 <0>         0.0896
     45 H17       8.7166  -45.4594   -1.6274 H         1 <0>         0.0412
     46 H18       9.0453  -43.7758   -1.9915 H         1 <0>         0.0338
     47 H19      10.7080  -45.0060   -3.7499 H         1 <0>         0.0612
     48 H20      11.2200  -43.4446   -3.1216 H         1 <0>         0.0483
     49 H21       9.3056  -44.9849    0.8105 H         1 <0>         0.0528
     50 H22      11.4283  -44.3872   -0.8480 H         1 <0>         0.0570
     51 H23      12.8701  -45.4992   -4.0146 H         1 <0>         0.3717
@<TRIPOS>BOND
     1    1    2 ar
     2    1    5 ar
     3    2    7 ar
     4    3    4 ar
     5    3    9 ar
     6    4   10 ar
     7    5   22 ar
     8    6    7 ar
     9    6   22 ar
    10    7   12 1
    11    8    9 ar
    12    8   11 ar
    13    8   13 1
    14    9   17 1
    15   10   11 ar
    16   10   27 1
    17   11   28 1
    18   12   23 am
    19   12   25 2
    20   13   24 1
    21   13   26 2
    22   14   27 1
    23   14   28 1
    24   15   20 1
    25   16   20 1
    26   17   21 1
    27   18   20 1
    28   18   21 1
    29   19   21 1
    30   19   23 1
    31    1   29 1
    32    2   30 1
    33    3   31 1
    34    4   32 1
    35    5   33 1
    36    6   34 1
    37   14   35 1
    38   14   36 1
    39   15   37 1
    40   15   38 1
    41   15   39 1
    42   16   40 1
    43   16   41 1
    44   16   42 1
    45   17   43 1
    46   17   44 1
    47   18   45 1
    48   18   46 1
    49   19   47 1
    50   19   48 1
    51   20   49 1
    52   21   50 1
    53   23   51 1
