@<TRIPOS>MOLECULE
AVX40812_0_4
   59    62     0     0     0
SMALL
USER_CHARGES

@<TRIPOS>ATOM
      1 C1        6.3668  -47.0473    1.4996 C.ar      1 <0>        -0.1593
      2 C2        5.3693  -46.7257    2.4182 C.ar      1 <0>        -0.1183
      3 C3        7.0495  -46.0435    0.8027 C.ar      1 <0>        -0.0764
      4 C4       12.0817  -45.3669   -2.1890 C.ar      1 <0>        -0.1418
      5 C5        5.0227  -45.3952    2.6695 C.ar      1 <0>        -0.1494
      6 C6       12.9971  -44.5592   -2.8681 C.ar      1 <0>        -0.1419
      7 C7        6.4750  -42.4496    1.1414 C.2       1 <0>         0.0125
      8 C8        6.7174  -44.6947    1.0393 C.ar      1 <0>        -0.0758
      9 C9       13.8477  -46.2409   -0.7592 C.ar      1 <0>        -0.0693
     10 C10      12.5044  -46.2027   -1.1405 C.ar      1 <0>        -0.0750
     11 C11       7.1888  -43.4530    0.5277 C.2       1 <0>        -0.1120
     12 C12       5.7138  -44.4023    1.9655 C.ar      1 <0>         0.0782
     13 C13      14.3182  -44.5882   -2.4377 C.ar      1 <0>         0.0330
     14 C14      14.7313  -45.4336   -1.4458 C.ar      1 <0>         0.0597
     15 C15      14.3142  -47.1077    0.3352 C.2       1 <0>         0.9222
     16 C16       9.6685  -43.4719    0.0509 C.2       1 <0>         0.6517
     17 C17      16.4509  -44.3677   -2.2126 C.3       1 <0>         0.3190
     18 C18      11.7122  -48.9035    3.1818 C.3       1 <0>        -0.0879
     19 C19       9.3463  -49.6396    2.8377 C.3       1 <0>        -0.0891
     20 C20       8.2718  -43.2600   -0.5008 C.3       1 <0>        -0.0868
     21 C21      11.4763  -47.0570   -0.4377 C.3       1 <0>        -0.0290
     22 C22      10.1452  -47.5544    1.6854 C.3       1 <0>        -0.0680
     23 C23      11.0418  -45.1865    1.2107 C.3       1 <0>         0.0766
     24 C24      10.5525  -48.9553    2.1869 C.3       1 <0>        -0.0707
     25 C25      11.2753  -46.7008    1.0574 C.3       1 <0>        -0.0854
     26 N1        5.5880  -43.0320    2.0071 N.pl3     1 <0>        -0.5844
     27 N2        9.8123  -44.7335    0.6201 N.am      1 <0>        -0.5599
     28 O1       14.3121  -46.6443    1.5367 O.co2     1 <0>        -0.8127
     29 O2       14.7095  -48.3007    0.0553 O.co2     1 <0>        -0.8227
     30 O3       10.5565  -42.6252   -0.0084 O.2       1 <0>        -0.5940
     31 O4       15.3432  -43.9249   -3.0387 O.3       1 <0>        -0.3589
     32 O5       16.0689  -45.3377   -1.2158 O.3       1 <0>        -0.3140
     33 H1        6.6181  -48.0891    1.3205 H         1 <0>         0.1267
     34 H2        4.8517  -47.5211    2.9485 H         1 <0>         0.1216
     35 H3        7.8248  -46.3101    0.0900 H         1 <0>         0.1383
     36 H4       11.0345  -45.3428   -2.4804 H         1 <0>         0.1182
     37 H5        4.2457  -45.1462    3.3846 H         1 <0>         0.1254
     38 H6       12.6753  -43.9132   -3.6770 H         1 <0>         0.1303
     39 H7        6.5176  -41.3737    1.0411 H         1 <0>         0.1665
     40 H8       17.1975  -44.8199   -2.8754 H         1 <0>         0.0482
     41 H9       16.9035  -43.5059   -1.7090 H         1 <0>         0.0472
     42 H10      11.4589  -48.2937    4.0554 H         1 <0>         0.0242
     43 H11      11.9668  -49.9089    3.5345 H         1 <0>         0.0211
     44 H12      12.6129  -48.4848    2.7232 H         1 <0>         0.0453
     45 H13       8.9937  -49.0672    3.7021 H         1 <0>         0.0221
     46 H14       9.6105  -50.6428    3.1887 H         1 <0>         0.0240
     47 H15       8.5139  -49.7347    2.1323 H         1 <0>         0.0343
     48 H16       8.1128  -43.9530   -1.3366 H         1 <0>         0.0530
     49 H17       8.2100  -42.2470   -0.9188 H         1 <0>         0.0663
     50 H18      11.8001  -48.1024   -0.5303 H         1 <0>         0.0359
     51 H19      10.5188  -46.9965   -0.9709 H         1 <0>         0.0904
     52 H20       9.3335  -47.6650    0.9542 H         1 <0>         0.0473
     53 H21       9.7142  -47.0045    2.5317 H         1 <0>         0.0171
     54 H22      11.0105  -44.9105    2.2705 H         1 <0>         0.0975
     55 H23      11.8539  -44.6114    0.7560 H         1 <0>         0.0852
     56 H24      10.8540  -49.5744    1.3345 H         1 <0>         0.0592
     57 H25      12.2097  -46.9308    1.5848 H         1 <0>         0.0500
     58 H26       4.9350  -42.5294    2.5925 H         1 <0>         0.4434
     59 H27       9.0112  -45.3634    0.6182 H         1 <0>         0.2913
@<TRIPOS>BOND
     1    1    2 ar
     2    1    3 ar
     3    2    5 ar
     4    3    8 ar
     5    4    6 ar
     6    4   10 ar
     7    5   12 ar
     8    6   13 ar
     9    7   11 2
    10    7   26 1
    11    8   11 1
    12    8   12 ar
    13    9   10 ar
    14    9   14 ar
    15    9   15 1
    16   10   21 1
    17   11   20 1
    18   12   26 1
    19   13   14 ar
    20   13   31 1
    21   14   32 1
    22   15   28 1
    23   15   29 2
    24   16   20 1
    25   16   27 am
    26   16   30 2
    27   17   31 1
    28   17   32 1
    29   18   24 1
    30   19   24 1
    31   21   25 1
    32   22   24 1
    33   22   25 1
    34   23   25 1
    35   23   27 1
    36    1   33 1
    37    2   34 1
    38    3   35 1
    39    4   36 1
    40    5   37 1
    41    6   38 1
    42    7   39 1
    43   17   40 1
    44   17   41 1
    45   18   42 1
    46   18   43 1
    47   18   44 1
    48   19   45 1
    49   19   46 1
    50   19   47 1
    51   20   48 1
    52   20   49 1
    53   21   50 1
    54   21   51 1
    55   22   52 1
    56   22   53 1
    57   23   54 1
    58   23   55 1
    59   24   56 1
    60   25   57 1
    61   26   58 1
    62   27   59 1
