@<TRIPOS>MOLECULE
GL5243106_0_5
   54    56     0     0     0
SMALL
USER_CHARGES

@<TRIPOS>ATOM
      1 C1       15.9677  -45.1636   -1.8206 C.ar      1 <0>        -0.0475
      2 C2       15.2664  -45.3535   -4.1248 C.ar      1 <0>        -0.0519
      3 C3        8.9246  -47.2291    0.0608 C.ar      1 <0>        -0.1466
      4 C4       17.2423  -45.6084   -2.1716 C.ar      1 <0>        -0.2077
      5 C5       16.5411  -45.7984   -4.4759 C.ar      1 <0>        -0.1952
      6 C6        8.3583  -47.6611    1.2628 C.ar      1 <0>        -0.1393
      7 C7       14.9797  -45.0362   -2.7972 C.ar      1 <0>        -0.1647
      8 C8       11.1229  -47.0902    1.0971 C.ar      1 <0>        -0.0940
      9 C9       10.2991  -46.9454   -0.0217 C.ar      1 <0>        -0.0679
     10 C10      17.5289  -45.9259   -3.4992 C.ar      1 <0>         0.1276
     11 C11       9.1936  -47.7959    2.3525 C.ar      1 <0>         0.0355
     12 C12      10.5389  -47.5184    2.2719 C.ar      1 <0>         0.0663
     13 C13      13.6221  -44.5624   -2.4233 C.2       1 <0>         0.6696
     14 C14      12.5643  -46.7995    1.0355 C.2       1 <0>         0.9260
     15 C15      10.0860  -48.1498    4.2919 C.3       1 <0>         0.3176
     16 C16       9.5703  -42.7440    0.4166 C.3       1 <0>        -0.0881
     17 C17       7.3519  -43.8730    0.1685 C.3       1 <0>        -0.0883
     18 C18      10.8633  -46.4811   -1.3438 C.3       1 <0>        -0.0363
     19 C19       9.2212  -44.5231   -1.3792 C.3       1 <0>        -0.0681
     20 C20      11.2121  -44.6074   -3.0116 C.3       1 <0>         0.1032
     21 C21       8.8685  -44.0508    0.0463 C.3       1 <0>        -0.0694
     22 C22      10.6893  -44.9624   -1.6071 C.3       1 <0>        -0.0909
     23 N1       18.8174  -46.3759   -3.8545 N.pl3     1 <0>        -0.8086
     24 N2       12.5777  -44.9990   -3.2301 N.am      1 <0>        -0.5495
     25 O1       13.3623  -47.7126    0.6015 O.co2     1 <0>        -0.7906
     26 O2       13.4926  -43.8123   -1.4594 O.2       1 <0>        -0.6649
     27 O3       12.9800  -45.6418    1.4180 O.co2     1 <0>        -0.8489
     28 O4        8.8233  -48.2031    3.5975 O.3       1 <0>        -0.3535
     29 O5       11.1792  -47.7164    3.4563 O.3       1 <0>        -0.3174
     30 H1       15.7554  -44.9191   -0.7831 H         1 <0>         0.1459
     31 H2       14.5043  -45.2578   -4.8944 H         1 <0>         0.1759
     32 H3        8.2896  -47.1137   -0.8143 H         1 <0>         0.1200
     33 H4       18.0043  -45.7039   -1.4022 H         1 <0>         0.1208
     34 H5       16.7535  -46.0429   -5.5134 H         1 <0>         0.1333
     35 H6        7.2991  -47.8810    1.3306 H         1 <0>         0.1312
     36 H7        9.9929  -47.4565    5.1356 H         1 <0>         0.0610
     37 H8       10.3146  -49.1496    4.6808 H         1 <0>         0.0475
     38 H9        9.3067  -41.9400   -0.2797 H         1 <0>         0.0304
     39 H10       9.2869  -42.4236    1.4250 H         1 <0>         0.0192
     40 H11      10.6582  -42.8595    0.4088 H         1 <0>         0.0441
     41 H12       6.9911  -43.1119   -0.5325 H         1 <0>         0.0263
     42 H13       7.0783  -43.5510    1.1789 H         1 <0>         0.0224
     43 H14       6.8231  -44.8081   -0.0445 H         1 <0>         0.0310
     44 H15      10.3608  -47.0552   -2.1338 H         1 <0>         0.0376
     45 H16      11.9241  -46.7555   -1.4092 H         1 <0>         0.0878
     46 H17       8.5547  -45.3530   -1.6492 H         1 <0>         0.0402
     47 H18       8.9828  -43.7073   -2.0748 H         1 <0>         0.0338
     48 H19      10.6086  -45.1027   -3.7800 H         1 <0>         0.0566
     49 H20      11.1462  -43.5309   -3.2005 H         1 <0>         0.0469
     50 H21       9.1633  -44.8207    0.7695 H         1 <0>         0.0535
     51 H22      11.3217  -44.4240   -0.8900 H         1 <0>         0.0597
     52 H23      19.5300  -46.4185   -3.1535 H         1 <0>         0.3713
     53 H24      19.0237  -46.5551   -4.8162 H         1 <0>         0.3756
     54 H25      12.7771  -45.5702   -4.0494 H         1 <0>         0.3713
@<TRIPOS>BOND
     1    1    4 ar
     2    1    7 ar
     3    2    5 ar
     4    2    7 ar
     5    3    6 ar
     6    3    9 ar
     7    4   10 ar
     8    5   10 ar
     9    6   11 ar
    10    7   13 1
    11    8    9 ar
    12    8   12 ar
    13    8   14 1
    14    9   18 1
    15   10   23 1
    16   11   12 ar
    17   11   28 1
    18   12   29 1
    19   13   24 am
    20   13   26 2
    21   14   25 1
    22   14   27 2
    23   15   28 1
    24   15   29 1
    25   16   21 1
    26   17   21 1
    27   18   22 1
    28   19   21 1
    29   19   22 1
    30   20   22 1
    31   20   24 1
    32    1   30 1
    33    2   31 1
    34    3   32 1
    35    4   33 1
    36    5   34 1
    37    6   35 1
    38   15   36 1
    39   15   37 1
    40   16   38 1
    41   16   39 1
    42   16   40 1
    43   17   41 1
    44   17   42 1
    45   17   43 1
    46   18   44 1
    47   18   45 1
    48   19   46 1
    49   19   47 1
    50   20   48 1
    51   20   49 1
    52   21   50 1
    53   22   51 1
    54   23   52 1
    55   23   53 1
    56   24   54 1
