@<TRIPOS>MOLECULE
GL524384_0_3
   56    59     0     0     0
SMALL
USER_CHARGES

@<TRIPOS>ATOM
      1 C1        8.8273  -42.7977   -0.1413 C.ar      1 <0>        -0.1429
      2 C2        9.2111  -43.7251    0.8420 C.ar      1 <0>        -0.1307
      3 C3        9.6203  -42.5878   -1.2764 C.ar      1 <0>        -0.1285
      4 C4       10.3921  -44.4582    0.7028 C.ar      1 <0>        -0.0968
      5 C5       10.2754  -47.7020   -0.4456 C.ar      1 <0>        -0.1508
      6 C6        9.6632  -48.5189    0.5149 C.ar      1 <0>        -0.1521
      7 C7       12.2935  -47.5430    0.9077 C.ar      1 <0>        -0.0675
      8 C8       10.7960  -43.3100   -1.4008 C.ar      1 <0>        -0.1091
      9 C9       11.1764  -44.2418   -0.4243 C.ar      1 <0>        -0.0767
     10 C10      11.5831  -47.2169   -0.2503 C.ar      1 <0>        -0.0836
     11 C11      10.3804  -48.7909    1.6749 C.ar      1 <0>         0.0410
     12 C12      11.6663  -48.3514    1.8403 C.ar      1 <0>         0.0680
     13 C13      13.6636  -47.0475    1.1346 C.2       1 <0>         0.9182
     14 C14      15.2681  -44.1483   -2.8844 C.2       1 <0>         0.6612
     15 C15      11.7829  -43.2744   -2.5301 C.3       1 <0>        -0.0551
     16 C16      11.1103  -49.5643    3.5517 C.3       1 <0>         0.3179
     17 C17      12.4657  -44.9256   -0.8024 C.3       1 <0>        -0.0350
     18 C18      13.0099  -43.9257   -1.8655 C.3       1 <0>         0.1037
     19 C19      12.1990  -46.3396   -1.3148 C.3       1 <0>        -0.0171
     20 C20      15.9897  -44.9191   -3.9794 C.3       1 <0>        -0.1674
     21 C21      16.7055  -46.1727   -3.4782 C.3       1 <0>        -0.0669
     22 C22      17.5079  -46.8662   -4.5841 C.3       1 <0>        -0.1140
     23 C23      16.5803  -47.4843   -5.6203 C.3       1 <0>         0.1029
     24 N1       13.9220  -44.4872   -2.8245 N.am      1 <0>        -0.5397
     25 N2       17.3942  -48.1995   -6.6338 N.4       1 <0>        -0.8423
     26 O1       14.6529  -47.7080    0.6397 O.co2     1 <0>        -0.8079
     27 O2       13.8275  -45.9700    1.8208 O.co2     1 <0>        -0.8089
     28 O3       15.8331  -43.3471   -2.1444 O.2       1 <0>        -0.6220
     29 O4        9.9619  -49.6299    2.6669 O.3       1 <0>        -0.3567
     30 O5       12.1988  -48.7719    3.0208 O.3       1 <0>        -0.3072
     31 H1        7.9069  -42.2332   -0.0134 H         1 <0>         0.1209
     32 H2        8.5863  -43.8663    1.7235 H         1 <0>         0.1301
     33 H3        9.3169  -41.8761   -2.0382 H         1 <0>         0.1218
     34 H4       10.6811  -45.1725    1.4665 H         1 <0>         0.1677
     35 H5        9.7286  -47.4435   -1.3495 H         1 <0>         0.1019
     36 H6        8.6551  -48.8952    0.3682 H         1 <0>         0.1262
     37 H7       11.4307  -43.8285   -3.4045 H         1 <0>         0.0468
     38 H8       11.9914  -42.2328   -2.8024 H         1 <0>         0.0711
     39 H9       10.8070  -49.1462    4.5194 H         1 <0>         0.0556
     40 H10      11.4644  -50.5901    3.7088 H         1 <0>         0.0571
     41 H11      13.0970  -44.9530    0.0547 H         1 <0>         0.1279
     42 H12      13.5648  -43.1363   -1.3361 H         1 <0>         0.0940
     43 H13      13.1375  -46.7848   -1.6683 H         1 <0>         0.0112
     44 H14      11.5364  -46.2965   -2.1871 H         1 <0>         0.1002
     45 H15      16.7006  -44.2520   -4.4893 H         1 <0>         0.0594
     46 H16      15.2297  -45.2156   -4.7129 H         1 <0>         0.0682
     47 H17      17.3665  -45.9232   -2.6395 H         1 <0>         0.0715
     48 H18      15.9501  -46.8745   -3.0928 H         1 <0>         0.0813
     49 H19      18.1744  -46.1363   -5.0694 H         1 <0>         0.0698
     50 H20      18.1472  -47.6453   -4.1528 H         1 <0>         0.0630
     51 H21      16.0027  -46.7259   -6.1569 H         1 <0>         0.1176
     52 H22      15.9003  -48.2226   -5.1760 H         1 <0>         0.1131
     53 H23      13.5436  -45.1523   -3.4907 H         1 <0>         0.3150
     54 H24      17.6834  -47.5661   -7.3907 H         1 <0>         0.4593
     55 H25      16.8611  -48.9714   -7.0513 H         1 <0>         0.4574
     56 H26      18.2427  -48.5932   -6.2129 H         1 <0>         0.4584
@<TRIPOS>BOND
     1    1    2 ar
     2    1    3 ar
     3    2    4 ar
     4    3    8 ar
     5    4    9 ar
     6    5    6 ar
     7    5   10 ar
     8    6   11 ar
     9    7   10 ar
    10    7   12 ar
    11    7   13 1
    12    8    9 ar
    13    8   15 1
    14    9   17 1
    15   10   19 1
    16   11   12 ar
    17   11   29 1
    18   12   30 1
    19   13   26 1
    20   13   27 2
    21   14   20 1
    22   14   24 am
    23   14   28 2
    24   15   18 1
    25   16   29 1
    26   16   30 1
    27   17   18 1
    28   17   19 1
    29   18   24 1
    30   20   21 1
    31   21   22 1
    32   22   23 1
    33   23   25 1
    34    1   31 1
    35    2   32 1
    36    3   33 1
    37    4   34 1
    38    5   35 1
    39    6   36 1
    40   15   37 1
    41   15   38 1
    42   16   39 1
    43   16   40 1
    44   17   41 1
    45   18   42 1
    46   19   43 1
    47   19   44 1
    48   20   45 1
    49   20   46 1
    50   21   47 1
    51   21   48 1
    52   22   49 1
    53   22   50 1
    54   23   51 1
    55   23   52 1
    56   24   53 1
    57   25   54 1
    58   25   55 1
    59   25   56 1
