@<TRIPOS>MOLECULE
pC2A03_0_3
   30    32     0     0     0
SMALL
USER_CHARGES

@<TRIPOS>ATOM
      1 C1       11.2543  -43.7618   -1.2113 C.ar      1 <0>        -0.1749
      2 C2       12.0098  -45.4564    0.3368 C.ar      1 <0>        -0.1614
      3 C3       10.1195  -43.5521   -0.4280 C.ar      1 <0>        -0.0789
      4 C4       10.8749  -45.2465    1.1202 C.ar      1 <0>        -0.0768
      5 C5       12.1995  -44.7141   -0.8290 C.ar      1 <0>         0.1031
      6 C6        9.9288  -44.2949    0.7365 C.ar      1 <0>        -0.0561
      7 C7       13.5023  -44.6551   -2.9888 C.2       1 <0>        -0.1275
      8 C8       14.7296  -44.9920   -3.3994 C.2       1 <0>        -0.0478
      9 C9       14.6264  -45.4758   -1.1683 C.2       1 <0>         0.7917
     10 C10      15.4026  -44.9082   -4.7202 C.3       1 <0>        -0.0155
     11 C11      16.8553  -44.4235   -4.5877 C.3       1 <0>        -0.0801
     12 C12      17.5880  -44.8671   -3.3037 C.3       1 <0>        -0.0916
     13 C13      16.8196  -45.8916   -2.4710 C.3       1 <0>         0.1202
     14 N1       13.3616  -44.9286   -1.6307 N.am      1 <0>        -0.2673
     15 N2       15.4384  -45.4791   -2.3310 N.am      1 <0>        -0.3625
     16 O1       14.9657  -45.8533   -0.0561 O.2       1 <0>        -0.6397
     17 Br1       8.3904  -44.0112    1.7971 Br        1 <0>        -0.0889
     18 H1       11.3922  -43.1782   -2.1179 H         1 <0>         0.1368
     19 H2       12.7398  -46.2007    0.6441 H         1 <0>         0.1834
     20 H3        9.3925  -42.8064   -0.7395 H         1 <0>         0.1467
     21 H4       10.7415  -45.8330    2.0256 H         1 <0>         0.1500
     22 H5       12.6920  -44.2302   -3.5584 H         1 <0>         0.1833
     23 H6       15.3859  -45.8763   -5.2301 H         1 <0>         0.0601
     24 H7       14.8543  -44.1978   -5.3480 H         1 <0>         0.0610
     25 H8       17.4413  -44.7665   -5.4743 H         1 <0>         0.0519
     26 H9       16.8773  -43.3105   -4.6535 H         1 <0>         0.0507
     27 H10      18.5867  -45.2743   -3.5647 H         1 <0>         0.0555
     28 H11      17.7933  -43.9674   -2.6828 H         1 <0>         0.0584
     29 H12      16.8151  -46.8570   -2.9673 H         1 <0>         0.0701
     30 H13      17.2583  -46.0096   -1.4868 H         1 <0>         0.0461
@<TRIPOS>BOND
     1    1    3 ar
     2    1    5 ar
     3    2    4 ar
     4    2    5 ar
     5    3    6 ar
     6    4    6 ar
     7    5   14 1
     8    6   17 1
     9    7    8 2
    10    7   14 1
    11    8   10 1
    12    8   15 1
    13    9   14 am
    14    9   15 am
    15    9   16 2
    16   10   11 1
    17   11   12 1
    18   12   13 1
    19   13   15 1
    20    1   18 1
    21    2   19 1
    22    3   20 1
    23    4   21 1
    24    7   22 1
    25   10   23 1
    26   10   24 1
    27   11   25 1
    28   11   26 1
    29   12   27 1
    30   12   28 1
    31   13   29 1
    32   13   30 1
