AVX17715_0, 3
##########                 Name:           AVX17715_0
##########          Protonation:                   93
##########               SMILES:   COc1ccc(cc1)CNC(=O)c2ccccc2C[NH2+]Cc3ccc4c(c3C(=O)[O-])OCO4
##########            Long Name:   )methylcarbamoyl]phenyl]methylammonio]methyl]-1,3-benzodioxole-4-carboxylate
##########          FlexRecCode: 1
##########               Number:                  361
##########   Ligand Source File: /raid1/people/rgc/Examples/sampl4/screening/ligands/build_1//sampl4-hivint-00000
##########           GlobalRank: 4
##########                 Rank:                    1
##########               Setnum:                   70
##########             Matchnum:                 3906
##########                Cloud:                    1
##########        Electrostatic:           -25.350595
##########        Van der Waals:           -25.847540
##########  Ligand Polar Desolv:            12.661242
########## Ligand Apolar Desolv:            -2.035324
##########      Internal Energy:             0.000000
##########      Receptor Energy: 0.0
########## Receptor Desolvation:             0.000000
########## Receptor Hydrophobic:             0.000000
##########         Total Energy: -40.57
##########        Ligand Charge:             0.000000
##########            Arbitrary:    +999.9990
##########     heavy atom count:   33
##########           pose count:    1
##########        Ligand Energy:             0.000000
# num electro vdwattr vdwrepu polsolv apolsol rdesolv rhydroe totalscore fullpol fullapo
#   1   -0.05   -0.79    0.12    0.01    0.01    0.00    0.00      -0.70    0.04    0.03
#   2    0.12   -0.41    0.02    0.01    0.17    0.00    0.00      -0.08    0.06    0.93
#   3   -0.04   -0.41    0.02    0.01   -0.05    0.00    0.00      -0.47    0.09   -0.31
#   4    0.01   -0.27    0.01   -0.09   -0.05    0.00    0.00      -0.38   -0.79   -0.42
#   5    0.00   -0.41    0.08   -0.04   -0.05    0.00    0.00      -0.42   -0.34   -0.45
#   6   -0.02   -0.91    0.64   -0.15   -0.06    0.00    0.00      -0.50   -0.95   -0.37
#   7    0.03   -0.77    0.43    0.35   -0.10    0.00    0.00      -0.05    1.53   -0.44
#   8   -0.16   -0.37    0.02   -1.04    0.36    0.00    0.00      -1.19   -6.67    2.32
#   9    0.49   -0.36    0.02    0.69   -0.09    0.00    0.00       0.75    4.96   -0.63
#  10   -1.18   -0.48    0.03   -0.94    0.06    0.00    0.00      -2.52   -4.96    0.29
#  11   -0.06   -0.19    0.00   -0.07   -0.03    0.00    0.00      -0.35   -1.00   -0.41
#  12   -0.01   -0.13    0.00   -0.03   -0.02    0.00    0.00      -0.18   -0.68   -0.44
#  13    0.00   -0.08    0.00   -0.02   -0.01    0.00    0.00      -0.11   -0.77   -0.47
#  14    0.00   -0.10    0.00   -0.02   -0.02    0.00    0.00      -0.14   -0.55   -0.47
#  15   -0.03   -0.20    0.00   -0.04   -0.03    0.00    0.00      -0.30   -0.58   -0.44
#  16   -0.09   -0.21    0.00   -0.04   -0.02    0.00    0.00      -0.36   -0.58   -0.37
#  17    0.08   -0.25    0.01    0.06   -0.05    0.00    0.00      -0.15    0.45   -0.35
#  18   -2.70   -0.41    0.01   -0.66    0.12    0.00    0.00      -3.62   -3.46    0.65
#  19    2.63   -0.01    0.00    0.37    0.04    0.00    0.00       3.03    4.45    0.44
#  20    2.28   -0.01    0.00    0.15    0.05    0.00    0.00       2.47    1.35    0.44
#  21    0.51   -0.51    0.03    0.11   -0.10    0.00    0.00       0.04    0.40   -0.35
#  22   -1.43   -0.94    0.07   -0.03   -0.12    0.00    0.00      -2.45   -0.10   -0.37
#  23   -0.86   -1.14    0.11   -0.14   -0.17    0.00    0.00      -2.19   -0.36   -0.45
#  24   -0.72   -2.01    0.36   -0.09   -0.23    0.00    0.00      -2.68   -0.18   -0.47
#  25    0.28   -2.07    0.40    0.00   -0.15    0.00    0.00      -1.53    0.00   -0.33
#  26   -0.92   -3.15    2.25    0.99    0.26    0.00    0.00      -0.57    1.94    0.52
#  27    1.15   -1.16    0.16   -0.59    0.01    0.00    0.00      -0.43   -1.20    0.02
#  28   -4.12   -1.32    0.16    2.16    0.15    0.00    0.00      -2.96    4.85    0.34
#  29    1.14   -1.60    0.31   -0.02   -0.13    0.00    0.00      -0.30   -0.04   -0.32
#  30   -2.03   -1.36    0.21    0.62   -0.16    0.00    0.00      -2.72    1.61   -0.41
#  31   14.25   -2.21    0.61   -3.46   -0.06    0.00    0.00       9.12   -8.08   -0.15
#  32  -24.40   -4.23    1.83    4.50   -0.15    0.00    0.00     -22.45    8.89   -0.29
#  33  -13.90   -2.17    0.84    7.40   -0.22    0.00    0.00      -8.04   18.72   -0.56
#  34   -0.01   -0.86    0.41   -0.05   -0.08    0.00    0.00      -0.59   -0.29   -0.45
#  35    0.12   -0.60    0.05   -0.09   -0.11    0.00    0.00      -0.63   -0.37   -0.46
#  36   -0.26   -0.29    0.07    0.14   -0.07    0.00    0.00      -0.41    0.55   -0.28
#  37   -0.12   -0.30    0.07    0.09   -0.07    0.00    0.00      -0.34    0.35   -0.27
#  38   -0.16   -0.32    0.06    0.10   -0.08    0.00    0.00      -0.40    0.31   -0.26
#  39   -0.01   -0.03    0.00    0.02   -0.01    0.00    0.00      -0.03    0.70   -0.22
#  40    0.01   -0.05    0.00    0.07   -0.02    0.00    0.00       0.02    1.30   -0.28
#  41    0.01   -0.24    0.08    0.15   -0.06    0.00    0.00      -0.06    0.71   -0.28
#  42    0.12   -0.46    0.44    0.26   -0.08    0.00    0.00       0.28    0.91   -0.28
#  43    0.02    0.00    0.00    0.13    0.01    0.00    0.00       0.16    4.35    0.43
#  44    0.01   -0.03    0.00    0.04   -0.01    0.00    0.00       0.02    1.83   -0.22
#  45    0.01   -0.01    0.00    0.01    0.00    0.00    0.00       0.01    1.30   -0.28
#  46   -0.01   -0.02    0.00    0.01    0.00    0.00    0.00      -0.02    0.74   -0.28
#  47    0.01   -0.07    0.00    0.03   -0.02    0.00    0.00      -0.04    0.46   -0.28
#  48    0.17   -0.07    0.00    0.06   -0.02    0.00    0.00       0.15    0.91   -0.28
#  49    0.07   -0.12    0.01    0.24   -0.03    0.00    0.00       0.16    1.84   -0.21
#  50    0.97   -0.13    0.01    0.02   -0.03    0.00    0.00       0.83    0.11   -0.21
#  51    1.41   -0.28    0.04    0.56   -0.06    0.00    0.00       1.67    2.43   -0.28
#  52    0.96   -0.21    0.03    0.58   -0.06    0.00    0.00       1.30    2.81   -0.28
#  53    0.55   -0.75    0.38    0.46   -0.13    0.00    0.00       0.51    1.00   -0.28
#  54    0.12   -0.43    0.12   -0.16   -0.09    0.00    0.00      -0.44   -0.50   -0.28
#  55    0.58   -0.33    0.04   -0.15   -0.11    0.00    0.00       0.04   -0.39   -0.28
#  56    0.08   -0.16    0.03    0.15   -0.04    0.00    0.00       0.07    1.09   -0.28
#  57   -0.26   -0.15    0.01    0.03   -0.05    0.00    0.00      -0.41    0.20   -0.28

@<TRIPOS>MOLECULE
       AVX17715_0        93
   57    60     0     0     0



@<TRIPOS>ATOM
      1 C1          5.0577   -44.1880     5.2298 C.3        1           0.0249
      2 O1          4.1878   -45.2486     4.8292 O.3        1          -0.3151
      3 C2          4.4760   -45.8735     3.6572 C.ar       1           0.1421
      4 C3          3.6699   -46.9080     3.2050 C.ar       1          -0.2108
      5 C4          3.9646   -47.5413     2.0131 C.ar       1          -0.0565
      6 C5          5.0622   -47.1451     1.2714 C.ar       1          -0.1594
      7 C6          5.3817   -47.8381    -0.0282 C.3        1           0.1654
      8 N1          6.2724   -48.9723     0.2295 N.am       1          -0.7092
      9 C7          7.6087   -48.7989     0.2052 C.2        1           0.5605
     10 O2          8.0749   -47.7014    -0.0305 O.2        1          -0.5535
     11 C8          8.5076   -49.9436     0.4652 C.ar       1          -0.1270
     12 C9          8.1122   -51.2374     0.1214 C.ar       1          -0.0839
     13 C10         8.9557   -52.3011     0.3663 C.ar       1          -0.1021
     14 C11        10.1914   -52.0876     0.9517 C.ar       1          -0.0853
     15 C12        10.5893   -50.8079     1.2946 C.ar       1          -0.0908
     16 C13         9.7573   -49.7345     1.0498 C.ar       1          -0.0878
     17 C14        10.1949   -48.3405     1.4189 C.3        1           0.0415
     18 N2         10.8987   -47.7312     0.2826 N.4        1          -0.4814
     19 H1         11.7080   -48.2875     0.0509 H          1           0.4089
     20 H2         10.2800   -47.6900    -0.5134 H          1           0.4277
     21 C15        11.3251   -46.3723     0.6422 C.3        1           0.0578
     22 C16        12.0472   -45.7473    -0.5236 C.ar       1          -0.1185
     23 C17        11.3443   -45.0245    -1.4617 C.ar       1          -0.0986
     24 C18        11.9999   -44.4461    -2.5370 C.ar       1          -0.1053
     25 C19        13.3684   -44.5883    -2.6797 C.ar       1           0.0383
     26 O3         14.2448   -44.1345    -3.6198 O.3        1          -0.3092
     27 C20        15.4207   -44.9503    -3.5073 C.3        1           0.2036
     28 O4         15.4005   -45.2977    -2.1146 O.3        1          -0.2718
     29 C21        14.0944   -45.3160    -1.7391 C.ar       1           0.0790
     30 C22        13.4333   -45.8965    -0.6499 C.ar       1          -0.1121
     31 C23        14.1902   -46.6629     0.3530 C.2        1           0.5216
     32 O5         14.6514   -46.0973     1.3347 O.co2      1          -0.6990
     33 O6         14.3580   -47.8657     0.2049 O.co2      1          -0.6336
     34 C24         5.8668   -46.1139     1.7198 C.ar       1          -0.0575
     35 C25         5.5733   -45.4740     2.9084 C.ar       1          -0.1537
     36 H3          4.7156   -43.7766     6.1795 H          1           0.1040
     37 H4          6.0710   -44.5729     5.3446 H          1           0.0577
     38 H5          5.0500   -43.4055     4.4710 H          1           0.0582
     39 H6          2.8129   -47.2183     3.7843 H          1           0.1321
     40 H7          3.3375   -48.3469     1.6606 H          1           0.1276
     41 H8          4.4595   -48.1968    -0.4851 H          1           0.0835
     42 H9          5.8727   -47.1366    -0.7028 H          1           0.0823
     43 H10         5.9004   -49.8482     0.4175 H          1           0.4055
     44 H11         7.1478   -51.4055    -0.3347 H          1           0.1327
     45 H12         8.6511   -53.3025     0.1009 H          1           0.1385
     46 H13        10.8477   -52.9238     1.1418 H          1           0.1401
     47 H14        11.5547   -50.6481     1.7515 H          1           0.1473
     48 H15         9.3206   -47.7396     1.6694 H          1           0.1360
     49 H16        10.8634   -48.3851     2.2787 H          1           0.1527
     50 H17        10.4507   -45.7714     0.8925 H          1           0.1671
     51 H18        11.9935   -46.4168     1.5020 H          1           0.1194
     52 H19        10.2755   -44.9080    -1.3591 H          1           0.1411
     53 H20        11.4394   -43.8819    -3.2677 H          1           0.1384
     54 H21        15.3401   -45.8394    -4.1326 H          1           0.1343
     55 H22        16.3163   -44.3802    -3.7544 H          1           0.0847
     56 H23         6.7234   -45.8061     1.1384 H          1           0.1323
     57 H24         6.2000   -44.6663     3.2563 H          1           0.1351
@<TRIPOS>BOND
     1    1    2 1
     2    1   36 1
     3    1   37 1
     4    1   38 1
     5    2    3 1
     6    3   35 ar
     7    3    4 ar
     8    4    5 ar
     9    4   39 1
    10    5    6 ar
    11    5   40 1
    12    6    7 1
    13    6   34 ar
    14    7    8 1
    15    7   41 1
    16    7   42 1
    17    8    9 am
    18    8   43 1
    19    9   10 2
    20    9   11 1
    21   11   16 ar
    22   11   12 ar
    23   12   13 ar
    24   12   44 1
    25   13   14 ar
    26   13   45 1
    27   14   15 ar
    28   14   46 1
    29   15   16 ar
    30   15   47 1
    31   16   17 1
    32   17   18 1
    33   17   48 1
    34   17   49 1
    35   18   19 1
    36   18   20 1
    37   18   21 1
    38   21   22 1
    39   21   50 1
    40   21   51 1
    41   22   30 ar
    42   22   23 ar
    43   23   24 ar
    44   23   52 1
    45   24   25 ar
    46   24   53 1
    47   25   29 ar
    48   25   26 1
    49   26   27 1
    50   27   28 1
    51   27   54 1
    52   27   55 1
    53   28   29 1
    54   29   30 ar
    55   30   31 1
    56   31   32 1
    57   31   33 2
    58   34   35 ar
    59   34   56 1
    60   35   57 1
