AVX15988_0, 3
##########                 Name:           AVX15988_0
##########          Protonation:                   97
##########               SMILES:   [H]/N=c\1/[nH]c2c(c(ccc2s1)Cl)C
##########            Long Name:   5-chloro-4-methyl-3H-1,3-benzothiazol-2-imine
##########          FlexRecCode: 1
##########               Number:                  615
##########   Ligand Source File: /raid1/people/rgc/Examples/sampl4/screening/ligands/build_1//sampl4-hivint-00000
##########           GlobalRank: 124
##########                 Rank:                    1
##########               Setnum:                    1
##########             Matchnum:                 5419
##########                Cloud:                    1
##########        Electrostatic:            -4.628837
##########        Van der Waals:           -14.717363
##########  Ligand Polar Desolv:             1.328650
########## Ligand Apolar Desolv:            -1.985784
##########      Internal Energy:             0.000000
##########      Receptor Energy: 0.0
########## Receptor Desolvation:             0.000000
########## Receptor Hydrophobic:             0.000000
##########         Total Energy: -20.0
##########        Ligand Charge:             0.000000
##########            Arbitrary:    +999.9990
##########     heavy atom count:   12
##########           pose count:    1
##########        Ligand Energy:             0.000000
# num electro vdwattr vdwrepu polsolv apolsol rdesolv rhydroe totalscore fullpol fullapo
#   1   -0.77   -0.44    0.02   -0.06   -0.05    0.00    0.00      -1.29   -0.23   -0.19
#   2   -0.72   -0.91    0.10   -0.01   -0.13    0.00    0.00      -1.66   -0.02   -0.41
#   3    0.00   -1.04    0.08    0.00   -0.12    0.00    0.00      -1.08   -0.01   -0.30
#   4   -0.12   -1.99    0.23   -0.01   -0.34    0.00    0.00      -2.23   -0.04   -0.93
#   5   -0.64   -1.80    0.36   -0.12   -0.23    0.00    0.00      -2.43   -0.23   -0.46
#   6   -0.23   -2.57    0.70   -0.03   -0.26    0.00    0.00      -2.40   -0.06   -0.47
#   7   -1.19   -2.03    0.50    0.06   -0.15    0.00    0.00      -2.81    0.12   -0.31
#   8    1.92   -1.38    0.35   -0.05   -0.28    0.00    0.00       0.56   -0.13   -0.72
#   9  -11.26   -1.47    0.31    0.26    0.41    0.00    0.00     -11.76    0.66    1.03
#  10    8.65   -2.35    1.95   -0.44   -1.03    0.00    0.00       6.78   -1.00   -2.36
#  11  -18.37   -2.65    1.31    0.93    0.63    0.00    0.00     -18.15    2.11    1.43
#  12   -0.57   -5.31    4.10    0.05   -0.41    0.00    0.00      -2.14    0.11   -0.83
#  13    0.25   -0.10    0.00    0.02   -0.03    0.00    0.00       0.15    0.22   -0.28
#  14    0.55   -0.09    0.00    0.01   -0.02    0.00    0.00       0.45    0.16   -0.23
#  15    0.51   -0.22    0.02    0.05   -0.05    0.00    0.00       0.31    0.22   -0.24
#  16    0.66   -0.51    0.22    0.37   -0.12    0.00    0.00       0.62    0.89   -0.28
#  17    0.82   -1.16    1.10    0.45   -0.16    0.00    0.00       1.05    0.80   -0.28
#  18    7.52   -0.02    0.00    0.05    0.13    0.00    0.00       7.68    0.21    0.52
#  19    8.37   -0.03    0.00   -0.21    0.22    0.00    0.00       8.35   -0.57    0.60

@<TRIPOS>MOLECULE
       AVX15988_0        97
   19    20     0     0     0



@<TRIPOS>ATOM
      1 C1         10.5025   -46.0531     0.5780 C.3        1          -0.1232
      2 C2         10.7604   -44.8849    -0.3386 C.ar       1          -0.0886
      3 C3          9.7295   -44.0299    -0.6546 C.ar       1          -0.0001
      4 Cl1         8.1515   -44.3147     0.0106 Cl         1          -0.0495
      5 C4          9.9281   -42.9460    -1.4933 C.ar       1          -0.1139
      6 C5         11.1895   -42.7245    -2.0200 C.ar       1          -0.0342
      7 C6         12.2182   -43.5787    -1.7039 C.ar       1          -0.1286
      8 C7         12.0508   -44.6808    -0.8539 C.ar       1           0.1622
      9 N1         13.1814   -45.4488    -0.6225 N.pl3      1          -0.6399
     10 C8         14.3747   -45.1068    -1.2100 C.2        1           0.4393
     11 N2         15.5350   -45.7007    -1.1136 N.2        1          -0.6873
     12 S1         13.9362   -43.6537    -2.1498 S.3        1          -0.0576
     13 H1          9.4546   -46.0549     0.8782 H          1           0.0814
     14 H2         10.7325   -46.9820     0.0563 H          1           0.0844
     15 H3         11.1336   -45.9671     1.4626 H          1           0.0669
     16 H4          9.1104   -42.2828    -1.7336 H          1           0.1508
     17 H5         11.3638   -41.8846    -2.6762 H          1           0.1482
     18 H6         13.1298   -46.2270    -0.0457 H          1           0.4170
     19 H7         16.3025   -45.3456    -1.5888 H          1           0.3727
@<TRIPOS>BOND
     1    1    2 1
     2    1   13 1
     3    1   14 1
     4    1   15 1
     5    2    8 ar
     6    2    3 ar
     7    3    4 1
     8    3    5 ar
     9    5    6 ar
    10    5   16 1
    11    6    7 ar
    12    6   17 1
    13    7   12 1
    14    7    8 ar
    15    8    9 1
    16    9   10 1
    17    9   18 1
    18   10   11 2
    19   10   12 1
    20   11   19 1
