AVX17257_0, 3
##########                 Name:           AVX17257_0
##########          Protonation:                  100
##########               SMILES:   c1ccc2c(c1)CC(=O)N2Cc3ccccc3C(=O)[O-]
##########            Long Name:   2-[(2-oxoindolin-1-yl)methyl]benzoate
##########          FlexRecCode: 1
##########               Number:                  419
##########   Ligand Source File: /raid1/people/rgc/Examples/sampl4/screening/ligands/build_1//sampl4-hivint-00000
##########           GlobalRank: 70
##########                 Rank:                    1
##########               Setnum:                    6
##########             Matchnum:                13524
##########                Cloud:                    1
##########        Electrostatic:           -32.650135
##########        Van der Waals:           -17.263426
##########  Ligand Polar Desolv:            25.255190
########## Ligand Apolar Desolv:            -2.738684
##########      Internal Energy:             0.000000
##########      Receptor Energy: 0.0
########## Receptor Desolvation:             0.000000
########## Receptor Hydrophobic:             0.000000
##########         Total Energy: -27.4
##########        Ligand Charge:            -1.000000
##########            Arbitrary:    +999.9990
##########     heavy atom count:   20
##########           pose count:    1
##########        Ligand Energy:             0.000000
# num electro vdwattr vdwrepu polsolv apolsol rdesolv rhydroe totalscore fullpol fullapo
#   1  -28.22   -4.74    5.34   14.55   -0.19    0.00    0.00     -13.26   30.93   -0.40
#   2   14.63   -2.38    0.79   -8.02   -0.07    0.00    0.00       4.94  -18.36   -0.17
#   3  -16.93   -2.75    1.06   12.91   -0.15    0.00    0.00      -5.85   29.32   -0.33
#   4   -2.19   -1.33    0.22    2.59   -0.16    0.00    0.00      -0.88    6.67   -0.41
#   5   -1.01   -1.55    0.23    1.08   -0.20    0.00    0.00      -1.45    2.53   -0.46
#   6   -0.83   -2.50    0.78    0.76   -0.22    0.00    0.00      -2.02    1.59   -0.47
#   7   -0.82   -2.51    0.81    0.42   -0.22    0.00    0.00      -2.32    0.89   -0.47
#   8   -1.03   -1.29    0.28    0.84   -0.15    0.00    0.00      -1.35    2.33   -0.42
#   9   -0.78   -0.89    0.06    0.72   -0.13    0.00    0.00      -1.02    2.27   -0.41
#  10    1.43   -0.51    0.03   -1.44   -0.09    0.00    0.00      -0.58   -5.31   -0.32
#  11   -2.29   -0.55    0.02    2.38    0.19    0.00    0.00      -0.26   11.04    0.89
#  12    1.18   -0.70    0.04   -2.39   -0.16    0.00    0.00      -2.03   -8.68   -0.59
#  13   -1.06   -0.95    0.09    4.53    0.14    0.00    0.00       2.75   13.63    0.42
#  14   -0.16   -0.52    0.07    0.14   -0.07    0.00    0.00      -0.54    0.57   -0.30
#  15   -0.30   -0.67    0.07    0.25   -0.09    0.00    0.00      -0.74    1.16   -0.43
#  16   -0.08   -0.79    0.11    0.03   -0.11    0.00    0.00      -0.83    0.13   -0.47
#  17   -0.04   -0.61    0.07    0.08   -0.09    0.00    0.00      -0.59    0.40   -0.47
#  18   -0.05   -0.47    0.05    0.12   -0.07    0.00    0.00      -0.43    0.77   -0.47
#  19   -0.39   -0.46    0.04    0.43   -0.07    0.00    0.00      -0.46    2.69   -0.45
#  20    0.50   -0.51    0.04   -0.17   -0.12    0.00    0.00      -0.27   -1.01   -0.70
#  21    1.80   -0.28    0.03   -0.74   -0.07    0.00    0.00       0.74   -2.66   -0.26
#  22   -0.06   -1.10    1.83   -1.05   -0.12    0.00    0.00      -0.50   -2.41   -0.28
#  23    0.55   -1.01    0.90   -1.06   -0.14    0.00    0.00      -0.76   -2.07   -0.28
#  24    0.69   -0.30    0.16   -0.58   -0.05    0.00    0.00      -0.07   -2.47   -0.21
#  25    0.85   -0.12    0.00   -0.19   -0.02    0.00    0.00       0.51   -1.82   -0.22
#  26    1.16   -0.29    0.05   -0.28   -0.07    0.00    0.00       0.57   -1.01   -0.25
#  27    0.01   -0.12    0.01   -0.13   -0.03    0.00    0.00      -0.27   -1.14   -0.28
#  28    0.23   -0.33    0.15   -0.28   -0.07    0.00    0.00      -0.31   -1.06   -0.28
#  29    0.07   -0.21    0.06   -0.04   -0.05    0.00    0.00      -0.17   -0.19   -0.28
#  30    0.00   -0.10    0.01   -0.03   -0.03    0.00    0.00      -0.15   -0.26   -0.28
#  31    0.02   -0.06    0.00   -0.07   -0.02    0.00    0.00      -0.12   -1.13   -0.28
#  32    0.49   -0.08    0.00   -0.10   -0.02    0.00    0.00       0.29   -1.38   -0.27

@<TRIPOS>MOLECULE
       AVX17257_0       100
   32    34     0     0     0



@<TRIPOS>ATOM
      1 O1         15.3056   -45.9576     0.2733 O.co2      1          -0.6828
      2 C1         14.0924   -46.0582     0.3894 C.2        1           0.5203
      3 O2         13.6100   -46.4663     1.4365 O.co2      1          -0.6830
      4 C2         13.2103   -45.6818    -0.7317 C.ar       1          -0.1302
      5 C3         13.7581   -45.2206    -1.9317 C.ar       1          -0.0823
      6 C4         12.9275   -44.8708    -2.9755 C.ar       1          -0.1405
      7 C5         11.5545   -44.9755    -2.8366 C.ar       1          -0.1250
      8 C6         11.0050   -45.4313    -1.6514 C.ar       1          -0.1284
      9 C7         11.8236   -45.7901    -0.6008 C.ar       1          -0.0711
     10 C8         11.2236   -46.2923     0.6871 C.3        1           0.1681
     11 N1          9.7634   -46.3123     0.5704 N.am       1          -0.5481
     12 C9          8.9721   -45.2749     0.8919 C.2        1           0.5198
     13 O3          9.3333   -44.1971     1.3147 O.2        1          -0.4976
     14 C10         7.5447   -45.7047     0.6272 C.3        1          -0.1132
     15 C11         7.6762   -47.1212     0.1170 C.ar       1          -0.1523
     16 C12         6.7545   -48.0573    -0.2951 C.ar       1          -0.0686
     17 C13         7.1797   -49.3039    -0.7202 C.ar       1          -0.1507
     18 C14         8.5298   -49.6041    -0.7292 C.ar       1          -0.0839
     19 C15         9.4551   -48.6681    -0.3165 C.ar       1          -0.1351
     20 C16         9.0352   -47.4085     0.1069 C.ar       1           0.1588
     21 H1         14.8294   -45.1378    -2.0412 H          1           0.1276
     22 H2         13.3495   -44.5142    -3.9035 H          1           0.1145
     23 H3         10.9088   -44.6995    -3.6571 H          1           0.1116
     24 H4          9.9326   -45.5100    -1.5499 H          1           0.1059
     25 H5         11.5859   -47.3006     0.8879 H          1           0.1096
     26 H6         11.5137   -45.6325     1.5048 H          1           0.1139
     27 H7          6.9622   -45.6831     1.5483 H          1           0.1192
     28 H8          7.0880   -45.0669    -0.1297 H          1           0.1183
     29 H9          5.7012   -47.8194    -0.2863 H          1           0.1245
     30 H10         6.4591   -50.0404    -1.0438 H          1           0.1250
     31 H11         8.8614   -50.5769    -1.0610 H          1           0.1276
     32 H12        10.5075   -48.9102    -0.3261 H          1           0.1281
@<TRIPOS>BOND
     1    1    2 1
     2    2    3 2
     3    2    4 1
     4    4    9 ar
     5    4    5 ar
     6    5    6 ar
     7    5   21 1
     8    6    7 ar
     9    6   22 1
    10    7    8 ar
    11    7   23 1
    12    8    9 ar
    13    8   24 1
    14    9   10 1
    15   10   11 1
    16   10   25 1
    17   10   26 1
    18   11   20 1
    19   11   12 am
    20   12   13 2
    21   12   14 1
    22   14   15 1
    23   14   27 1
    24   14   28 1
    25   15   20 ar
    26   15   16 ar
    27   16   17 ar
    28   16   29 1
    29   17   18 ar
    30   17   30 1
    31   18   19 ar
    32   18   31 1
    33   19   20 ar
    34   19   32 1
