AVX101118_1, 3
##########                 Name:          AVX101118_0
##########          Protonation:                   22
##########               SMILES:   CN(Cc1ccccc1C(=O)NCC2CCCCC2)Cc3ccc4c(c3C(=O)[O-])OCCO4
##########            Long Name:   henyl]methyl-methyl-amino]methyl]-2,3-dihydro-1,4-benzodioxine-5-carboxylate
##########          FlexRecCode: 1
##########               Number:                  395
##########   Ligand Source File: /raid1/people/rgc/Examples/sampl4/screening/ligands/build_1//sampl4-hivint-00000
##########           GlobalRank: 25
##########                 Rank:                    1
##########               Setnum:                  146
##########             Matchnum:                13559
##########                Cloud:                    1
##########        Electrostatic:           -31.574848
##########        Van der Waals:           -28.583130
##########  Ligand Polar Desolv:            29.050669
########## Ligand Apolar Desolv:            -2.510806
##########      Internal Energy:             0.000000
##########      Receptor Energy: 0.0
########## Receptor Desolvation:             0.000000
########## Receptor Hydrophobic:             0.000000
##########         Total Energy: -33.62
##########        Ligand Charge:            -1.000000
##########            Arbitrary:    +999.9990
##########     heavy atom count:   33
##########           pose count:    1
##########        Ligand Energy:             0.000000
# num electro vdwattr vdwrepu polsolv apolsol rdesolv rhydroe totalscore fullpol fullapo
#   1    0.07   -0.28    0.01   -0.07   -0.07    0.00    0.00      -0.34   -0.43   -0.44
#   2   -2.64   -0.57    0.03    2.06    0.38    0.00    0.00      -0.74   10.51    1.96
#   3    0.03   -0.51    0.06   -0.38   -0.06    0.00    0.00      -0.85   -1.90   -0.31
#   4    0.00   -0.48    0.04    0.11   -0.05    0.00    0.00      -0.38    0.76   -0.32
#   5   -0.07   -0.83    0.18    0.23   -0.08    0.00    0.00      -0.56    1.28   -0.42
#   6    0.05   -0.75    0.21    0.05   -0.07    0.00    0.00      -0.52    0.31   -0.47
#   7    0.05   -0.26    0.02    0.02   -0.04    0.00    0.00      -0.21    0.23   -0.47
#   8    0.02   -0.14    0.00    0.02   -0.02    0.00    0.00      -0.12    0.34   -0.44
#   9    0.02   -0.21    0.01    0.13   -0.03    0.00    0.00      -0.09    1.74   -0.41
#  10   -0.14   -0.17    0.00   -0.44   -0.04    0.00    0.00      -0.78   -7.93   -0.65
#  11    0.10   -0.07    0.00    0.39    0.01    0.00    0.00       0.43   13.04    0.31
#  12    0.27   -0.38    0.02    0.89    0.29    0.00    0.00       1.08    6.84    2.20
#  13   -0.06   -0.25    0.02   -0.19   -0.05    0.00    0.00      -0.54   -1.51   -0.38
#  14    0.06   -0.47    0.10    0.07   -0.02    0.00    0.00      -0.26    0.45   -0.15
#  15    0.08   -0.52    0.08    0.10   -0.04    0.00    0.00      -0.30    0.56   -0.22
#  16    0.14   -0.61    0.10    0.08   -0.06    0.00    0.00      -0.35    0.36   -0.25
#  17    0.08   -0.28    0.01    0.09   -0.04    0.00    0.00      -0.14    0.53   -0.25
#  18    0.05   -0.25    0.01    0.08   -0.04    0.00    0.00      -0.14    0.56   -0.25
#  19    0.04   -0.16    0.01    0.08   -0.02    0.00    0.00      -0.05    0.91   -0.22
#  20    1.07   -0.63    0.06   -1.34   -0.08    0.00    0.00      -0.92   -4.67   -0.28
#  21   -0.43   -0.95    0.08    0.42   -0.13    0.00    0.00      -1.01    1.29   -0.39
#  22   -1.06   -1.03    0.10    0.61   -0.13    0.00    0.00      -1.52    1.75   -0.38
#  23   -0.96   -1.78    0.29    0.55   -0.21    0.00    0.00      -2.10    1.21   -0.46
#  24    0.11   -1.76    0.27   -0.30   -0.13    0.00    0.00      -1.82   -0.67   -0.30
#  25   -1.03   -2.47    0.92    2.35    0.33    0.00    0.00       0.10    4.81    0.68
#  26    0.10   -1.17    0.16   -0.16   -0.07    0.00    0.00      -1.14   -0.33   -0.14
#  27    0.20   -1.19    0.18    0.14   -0.07    0.00    0.00      -0.73    0.29   -0.14
#  28   -6.01   -1.83    0.54    4.41    0.12    0.00    0.00      -2.77    9.90    0.27
#  29    1.45   -1.69    0.45   -0.67   -0.13    0.00    0.00      -0.59   -1.61   -0.30
#  30   -2.90   -1.57    0.34    3.21   -0.16    0.00    0.00      -1.09    8.02   -0.41
#  31   15.73   -3.16    1.14   -9.20   -0.08    0.00    0.00       4.43  -19.90   -0.17
#  32  -23.77   -6.07    4.10   17.28   -0.18    0.00    0.00      -8.64   31.33   -0.33
#  33  -18.17   -3.82    2.34   14.44   -0.26    0.00    0.00      -5.47   32.35   -0.59
#  34    0.12   -0.15    0.02   -0.05   -0.04    0.00    0.00      -0.10   -0.35   -0.28
#  35    0.17   -0.06    0.00   -0.05   -0.01    0.00    0.00       0.06   -0.88   -0.22
#  36    0.14   -0.07    0.00   -0.10   -0.02    0.00    0.00      -0.04   -1.58   -0.24
#  37    0.06   -0.46    0.22   -0.30   -0.05    0.00    0.00      -0.53   -1.26   -0.20
#  38    0.00   -0.10    0.01   -0.04   -0.02    0.00    0.00      -0.15   -0.41   -0.27
#  39    0.48   -0.23    0.05   -0.22   -0.05    0.00    0.00       0.03   -1.19   -0.28
#  40   -0.21   -0.29    0.23   -0.05   -0.04    0.00    0.00      -0.36   -0.35   -0.28
#  41   -0.04   -0.03    0.00    0.00   -0.01    0.00    0.00      -0.08    0.05   -0.28
#  42   -0.02   -0.01    0.00    0.00    0.00    0.00    0.00      -0.04   -0.37   -0.22
#  43   -0.13   -0.01    0.00   -0.28    0.05    0.00    0.00      -0.37   -2.13    0.39
#  44   -0.03   -0.02    0.00   -0.01   -0.01    0.00    0.00      -0.06   -0.33   -0.28
#  45   -0.04   -0.12    0.01   -0.05   -0.03    0.00    0.00      -0.23   -0.40   -0.28
#  46   -0.06   -0.49    0.64   -0.10   -0.05    0.00    0.00      -0.06   -0.52   -0.28
#  47   -0.03   -0.05    0.00   -0.01   -0.01    0.00    0.00      -0.11   -0.27   -0.28
#  48   -0.05   -0.34    0.11   -0.07   -0.05    0.00    0.00      -0.40   -0.31   -0.24
#  49   -0.07   -0.17    0.02   -0.04   -0.05    0.00    0.00      -0.30   -0.22   -0.28
#  50   -0.20   -0.42    0.21   -0.05   -0.07    0.00    0.00      -0.54   -0.20   -0.28
#  51   -0.01   -0.04    0.00   -0.01   -0.01    0.00    0.00      -0.08   -0.26   -0.28
#  52   -0.05   -0.12    0.01   -0.04   -0.04    0.00    0.00      -0.23   -0.28   -0.28
#  53    0.00   -0.09    0.01   -0.03   -0.03    0.00    0.00      -0.13   -0.34   -0.28
#  54   -0.06   -0.10    0.01   -0.03   -0.03    0.00    0.00      -0.21   -0.33   -0.28
#  55   -0.01   -0.03    0.00   -0.01   -0.01    0.00    0.00      -0.06   -0.44   -0.28
#  56   -0.02   -0.02    0.00   -0.01   -0.01    0.00    0.00      -0.05   -0.41   -0.28
#  57    0.38   -0.15    0.01    0.00   -0.04    0.00    0.00       0.21    0.02   -0.22
#  58    1.10   -0.44    0.14   -0.13   -0.08    0.00    0.00       0.60   -0.42   -0.25
#  59    0.95   -0.20    0.03   -0.61   -0.04    0.00    0.00       0.13   -3.30   -0.22
#  60    0.57   -0.62    0.21   -1.26   -0.13    0.00    0.00      -1.23   -2.79   -0.28
#  61    0.18   -0.42    0.19   -0.45   -0.08    0.00    0.00      -0.59   -1.64   -0.28
#  62    0.04   -0.38    0.05   -0.44   -0.12    0.00    0.00      -0.85   -1.03   -0.28
#  63    1.21   -0.34    0.06   -0.46   -0.10    0.00    0.00       0.36   -1.28   -0.28
#  64    1.53   -0.62    0.25   -1.12   -0.13    0.00    0.00      -0.10   -2.39   -0.28

@<TRIPOS>MOLECULE
      AVX101118_0        22
   64    67     0     0     0



@<TRIPOS>ATOM
      1 C1          9.9104   -47.9970     0.1006 C.3        1           0.0187
      2 N1         11.0657   -47.7282     0.9671 N.3        1          -0.5256
      3 C2         10.8662   -48.3033     2.3042 C.3        1           0.0879
      4 C3         11.1730   -49.7783     2.2673 C.ar       1          -0.0097
      5 C4         12.3054   -50.2330     1.6233 C.ar       1          -0.1229
      6 C5         12.5883   -51.5867     1.5885 C.ar       1          -0.0975
      7 C6         11.7392   -52.4933     2.1984 C.ar       1          -0.1339
      8 C7         10.6041   -52.0518     2.8460 C.ar       1          -0.0920
      9 C8         10.3154   -50.6867     2.8893 C.ar       1          -0.1140
     10 C9          9.1035   -50.2058     3.5864 C.2        1           0.5498
     11 O1          8.0055   -50.5835     3.2270 O.2        1          -0.4905
     12 N2          9.2162   -49.3487     4.6204 N.am       1          -0.7332
     13 C10         8.0153   -48.8722     5.3110 C.3        1           0.1258
     14 C11         7.5136   -47.5931     4.6378 C.3        1          -0.0972
     15 C12         6.6059   -46.8301     5.6048 C.3        1          -0.1149
     16 C13         6.1041   -45.5511     4.9316 C.3        1          -0.1191
     17 C14         5.3162   -45.9137     3.6711 C.3        1          -0.1208
     18 C15         6.2238   -46.6766     2.7041 C.3        1          -0.1180
     19 C16         6.7257   -47.9557     3.3774 C.3        1          -0.1135
     20 C17        11.3382   -46.2870     1.0493 C.3        1           0.1234
     21 C18        12.0930   -45.8477    -0.1787 C.ar       1          -0.0338
     22 C19        11.4065   -45.4149    -1.2915 C.ar       1          -0.1164
     23 C20        12.0930   -45.0084    -2.4239 C.ar       1          -0.1234
     24 C21        13.4780   -45.0321    -2.4504 C.ar       1           0.0120
     25 O2         14.1372   -44.6255    -3.5699 O.3        1          -0.3166
     26 C22        15.5055   -45.0272    -3.6914 C.3        1           0.0218
     27 C23        16.1947   -44.7188    -2.3568 C.3        1           0.0136
     28 O3         15.5430   -45.4981    -1.3487 O.3        1          -0.2591
     29 C24        14.1860   -45.4671    -1.3359 C.ar       1           0.0816
     30 C25        13.4921   -45.8737    -0.1873 C.ar       1          -0.1387
     31 C26        14.2309   -46.3300     1.0010 C.2        1           0.5240
     32 O4         14.5589   -45.5264     1.8633 O.co2      1          -0.6873
     33 O5         14.5173   -47.5127     1.1265 O.co2      1          -0.6705
     34 H1         10.0845   -47.5603    -0.8828 H          1           0.0211
     35 H2          9.7736   -49.0738     0.0010 H          1           0.0680
     36 H3          9.0158   -47.5564     0.5406 H          1           0.0575
     37 H4         11.5310   -47.8115     3.0141 H          1           0.1104
     38 H5          9.8313   -48.1551     2.6126 H          1           0.0337
     39 H6         12.9720   -49.5308     1.1450 H          1           0.1261
     40 H7         13.4758   -51.9377     1.0828 H          1           0.1231
     41 H8         11.9655   -53.5489     2.1670 H          1           0.1234
     42 H9          9.9421   -52.7603     3.3217 H          1           0.1205
     43 H10        10.0924   -49.0474     4.9074 H          1           0.3929
     44 H11         7.2401   -49.6369     5.2616 H          1           0.0706
     45 H12         8.2544   -48.6642     6.3539 H          1           0.0671
     46 H13         8.3638   -46.9673     4.3673 H          1           0.0752
     47 H14         5.7555   -47.4560     5.8753 H          1           0.0650
     48 H15         7.1672   -46.5718     6.5027 H          1           0.0604
     49 H16         5.4576   -45.0076     5.6204 H          1           0.0601
     50 H17         6.9546   -44.9253     4.6610 H          1           0.0605
     51 H18         4.4658   -46.5395     3.9417 H          1           0.0616
     52 H19         4.9587   -45.0024     3.1915 H          1           0.0588
     53 H20         5.6624   -46.9349     1.8062 H          1           0.0620
     54 H21         7.0742   -46.0508     2.4336 H          1           0.0610
     55 H22         7.3722   -48.4992     2.6884 H          1           0.0671
     56 H23         5.8752   -48.5815     3.6480 H          1           0.0662
     57 H24        10.3962   -45.7421     1.1112 H          1           0.0713
     58 H25        11.9363   -46.0804     1.9368 H          1           0.0919
     59 H26        10.3269   -45.3925    -1.2811 H          1           0.1358
     60 H27        11.5453   -44.6714    -3.2916 H          1           0.1188
     61 H28        15.5605   -46.0960    -3.8981 H          1           0.1107
     62 H29        15.9858   -44.4674    -4.4939 H          1           0.0694
     63 H30        17.2484   -44.9922    -2.4125 H          1           0.0673
     64 H31        16.0966   -43.6581    -2.1259 H          1           0.1125
@<TRIPOS>BOND
     1    1    2 1
     2    1   34 1
     3    1   35 1
     4    1   36 1
     5    2    3 1
     6    2   20 1
     7    3    4 1
     8    3   37 1
     9    3   38 1
    10    4    9 ar
    11    4    5 ar
    12    5    6 ar
    13    5   39 1
    14    6    7 ar
    15    6   40 1
    16    7    8 ar
    17    7   41 1
    18    8    9 ar
    19    8   42 1
    20    9   10 1
    21   10   11 2
    22   10   12 am
    23   12   13 1
    24   12   43 1
    25   13   14 1
    26   13   44 1
    27   13   45 1
    28   14   19 1
    29   14   15 1
    30   14   46 1
    31   15   16 1
    32   15   47 1
    33   15   48 1
    34   16   17 1
    35   16   49 1
    36   16   50 1
    37   17   18 1
    38   17   51 1
    39   17   52 1
    40   18   19 1
    41   18   53 1
    42   18   54 1
    43   19   55 1
    44   19   56 1
    45   20   21 1
    46   20   57 1
    47   20   58 1
    48   21   30 ar
    49   21   22 ar
    50   22   23 ar
    51   22   59 1
    52   23   24 ar
    53   23   60 1
    54   24   29 ar
    55   24   25 1
    56   25   26 1
    57   26   27 1
    58   26   61 1
    59   26   62 1
    60   27   28 1
    61   27   63 1
    62   27   64 1
    63   28   29 1
    64   29   30 ar
    65   30   31 1
    66   31   32 1
    67   31   33 2
