AVX101121_0, 3
##########                 Name:          AVX101121_0
##########          Protonation:                   85
##########               SMILES:   C[NH+](Cc1cccc(c1C(=O)[O-])OC)Cc2cc3ccccc3cc2C(=O)NCc4ccc(cc4)OC
##########            Long Name:   hoxyphenyl)methylcarbamoyl]-2-naphthyl]methyl-methyl-ammonio]methyl]benzoate
##########          FlexRecCode: 1
##########               Number:                  418
##########   Ligand Source File: /raid1/people/rgc/Examples/sampl4/screening/ligands/build_1//sampl4-hivint-00000
##########           GlobalRank: 8
##########                 Rank:                    1
##########               Setnum:                  237
##########             Matchnum:                15879
##########                Cloud:                    1
##########        Electrostatic:           -23.541725
##########        Van der Waals:           -25.569481
##########  Ligand Polar Desolv:            14.588491
########## Ligand Apolar Desolv:            -3.650671
##########      Internal Energy:             0.000000
##########      Receptor Energy: 0.0
########## Receptor Desolvation:             0.000000
########## Receptor Hydrophobic:             0.000000
##########         Total Energy: -38.17
##########        Ligand Charge:             0.000000
##########            Arbitrary:    +999.9990
##########     heavy atom count:   37
##########           pose count:    1
##########        Ligand Energy:             0.000000
# num electro vdwattr vdwrepu polsolv apolsol rdesolv rhydroe totalscore fullpol fullapo
#   1   -0.02   -0.32    0.04    0.00    0.00    0.00    0.00      -0.29    0.03    0.03
#   2    0.19   -0.19    0.01    0.04    0.09    0.00    0.00       0.12    0.38    0.93
#   3   -0.08   -0.26    0.01    0.00   -0.03    0.00    0.00      -0.36   -0.05   -0.31
#   4    0.09   -0.15    0.00   -0.03   -0.02    0.00    0.00      -0.11   -0.49   -0.42
#   5    0.02   -0.18    0.00   -0.01   -0.03    0.00    0.00      -0.19   -0.20   -0.45
#   6    0.08   -0.27    0.01   -0.04   -0.04    0.00    0.00      -0.27   -0.44   -0.37
#   7   -0.06   -0.24    0.01    0.08   -0.06    0.00    0.00      -0.26    0.61   -0.44
#   8   -0.08   -0.31    0.01   -0.37    0.28    0.00    0.00      -0.46   -3.03    2.32
#   9    0.58   -0.57    0.08    0.27   -0.12    0.00    0.00       0.23    1.44   -0.65
#  10   -0.73   -1.00    0.36   -0.07    0.08    0.00    0.00      -1.35   -0.26    0.32
#  11   -0.22   -0.61    0.07   -0.09   -0.08    0.00    0.00      -0.93   -0.46   -0.41
#  12   -0.21   -0.66    0.11   -0.04   -0.08    0.00    0.00      -0.87   -0.19   -0.39
#  13    0.23   -0.36    0.02    0.07   -0.05    0.00    0.00      -0.10    0.32   -0.26
#  14   -2.62   -0.56    0.03   -0.46    0.04    0.00    0.00      -3.58   -1.90    0.16
#  15    3.39   -0.01    0.00    0.01    0.03    0.00    0.00       3.41    0.11    0.32
#  16   -0.11   -0.67    0.10   -0.19   -0.10    0.00    0.00      -0.96   -0.81   -0.42
#  17    0.68   -1.00    0.21    0.07   -0.10    0.00    0.00      -0.14    0.20   -0.29
#  18   -1.33   -1.47    0.41   -0.01   -0.11    0.00    0.00      -2.51   -0.02   -0.30
#  19   -1.66   -1.44    0.37   -0.31   -0.17    0.00    0.00      -3.22   -0.73   -0.40
#  20   -0.62   -2.07    0.39   -0.12   -0.23    0.00    0.00      -2.66   -0.25   -0.47
#  21   -1.58   -2.17    0.50    0.20   -0.20    0.00    0.00      -3.25    0.43   -0.42
#  22    2.33   -1.63    0.31   -0.42   -0.13    0.00    0.00       0.45   -0.99   -0.31
#  23   -3.75   -1.33    0.21    2.07    0.15    0.00    0.00      -2.64    4.84    0.36
#  24    0.36   -1.40    0.34   -0.03    0.01    0.00    0.00      -0.72   -0.07    0.03
#  25   -3.26   -1.65    0.45    0.97   -0.16    0.00    0.00      -3.65    2.42   -0.40
#  26   16.02   -2.71    1.44   -3.92   -0.06    0.00    0.00      10.76   -9.07   -0.15
#  27  -30.10   -6.70    9.94    5.99   -0.15    0.00    0.00     -21.03   11.82   -0.30
#  28  -13.27   -2.04    0.73    7.67   -0.23    0.00    0.00      -7.14   19.83   -0.59
#  29   -0.59   -0.98    0.29   -0.09   -0.08    0.00    0.00      -1.44   -0.38   -0.33
#  30   -0.06   -1.14    0.39   -0.02   -0.09    0.00    0.00      -0.91   -0.08   -0.40
#  31   -0.49   -1.40    0.53   -0.06   -0.11    0.00    0.00      -1.53   -0.23   -0.46
#  32   -0.21   -0.76    0.16   -0.05   -0.09    0.00    0.00      -0.95   -0.24   -0.47
#  33   -0.02   -0.62    0.18   -0.06   -0.07    0.00    0.00      -0.60   -0.41   -0.47
#  34   -0.01   -0.88    0.39   -0.07   -0.08    0.00    0.00      -0.64   -0.37   -0.46
#  35   -0.01   -1.04    0.44   -0.05   -0.08    0.00    0.00      -0.73   -0.24   -0.40
#  36   -0.02   -0.71    0.10   -0.02   -0.09    0.00    0.00      -0.74   -0.12   -0.43
#  37    0.04   -0.50    0.06   -0.01   -0.06    0.00    0.00      -0.48   -0.10   -0.45
#  38    0.09   -0.50    0.05    0.01   -0.07    0.00    0.00      -0.43    0.05   -0.46
#  39   -0.07   -0.06    0.00    0.03   -0.02    0.00    0.00      -0.11    0.52   -0.28
#  40   -0.03   -0.05    0.00    0.01   -0.01    0.00    0.00      -0.07    0.35   -0.26
#  41   -0.06   -0.36    0.26    0.05   -0.05    0.00    0.00      -0.15    0.29   -0.26
#  42   -0.05   -0.02    0.00    0.01    0.00    0.00    0.00      -0.05    0.67   -0.22
#  43   -0.03   -0.03    0.00    0.02   -0.01    0.00    0.00      -0.04    1.00   -0.28
#  44    0.00   -0.08    0.01    0.01   -0.02    0.00    0.00      -0.08    0.13   -0.28
#  45   -0.07   -0.10    0.00    0.03   -0.03    0.00    0.00      -0.16    0.34   -0.28
#  46    0.02    0.00    0.00    0.08    0.01    0.00    0.00       0.11    2.66    0.44
#  47    0.90   -0.13    0.01   -0.01   -0.03    0.00    0.00       0.74   -0.06   -0.26
#  48    0.33   -0.10    0.00    0.13   -0.02    0.00    0.00       0.35    1.45   -0.22
#  49    0.11   -0.42    0.20    0.30   -0.05    0.00    0.00       0.13    1.32   -0.22
#  50    0.02   -0.37    0.15    0.64   -0.06    0.00    0.00       0.38    2.86   -0.28
#  51    0.13   -0.08    0.00    0.09   -0.01    0.00    0.00       0.13    1.39   -0.18
#  52    1.67   -0.37    0.12   -0.10   -0.06    0.00    0.00       1.26   -0.32   -0.20
#  53    2.20   -0.57    0.23    0.85   -0.10    0.00    0.00       2.62    2.23   -0.27
#  54    1.03   -0.22    0.03    0.55   -0.06    0.00    0.00       1.34    2.62   -0.28
#  55    0.66   -0.70    0.29    0.72   -0.13    0.00    0.00       0.83    1.52   -0.28
#  56    0.34   -0.72    0.50    0.01   -0.09    0.00    0.00       0.03    0.02   -0.22
#  57    0.99   -0.33    0.06   -0.08   -0.09    0.00    0.00       0.54   -0.25   -0.26
#  58    0.82   -0.47    0.11   -0.10   -0.11    0.00    0.00       0.26   -0.22   -0.26
#  59    2.87   -0.81    0.54   -0.26   -0.13    0.00    0.00       2.20   -0.56   -0.28
#  60    0.85   -0.21    0.04    0.11   -0.03    0.00    0.00       0.75    0.58   -0.17
#  61    0.76   -0.82    1.28    0.10   -0.08    0.00    0.00       1.24    0.36   -0.28
#  62    0.21   -0.12    0.02    0.06   -0.03    0.00    0.00       0.14    0.56   -0.28
#  63    0.03   -0.06    0.00    0.05   -0.02    0.00    0.00       0.01    0.80   -0.28
#  64    0.01   -0.12    0.01    0.14   -0.03    0.00    0.00       0.01    1.14   -0.28
#  65    0.01   -0.10    0.01    0.17   -0.03    0.00    0.00       0.06    1.43   -0.22
#  66   -0.09   -0.14    0.03    0.04   -0.03    0.00    0.00      -0.19    0.37   -0.28
#  67   -0.09   -0.14    0.01   -0.01   -0.04    0.00    0.00      -0.26   -0.09   -0.28

@<TRIPOS>MOLECULE
      AVX101121_0        85
   67    70     0     0     0



@<TRIPOS>ATOM
      1 C1          7.3747   -49.0103     8.5084 C.3        1           0.0255
      2 O1          6.0765   -48.6255     8.0504 O.3        1          -0.3155
      3 C2          5.9850   -48.1587     6.7772 C.ar       1           0.1397
      4 C3          4.7567   -47.7636     6.2687 C.ar       1          -0.2113
      5 C4          4.6662   -47.2891     4.9746 C.ar       1          -0.0578
      6 C5          5.7990   -47.2088     4.1857 C.ar       1          -0.1556
      7 C6          5.6975   -46.6912     2.7740 C.3        1           0.1666
      8 N1          6.4663   -47.5595     1.8790 N.am       1          -0.7168
      9 C7          7.0337   -47.0491     0.7682 C.2        1           0.5598
     10 O2          6.9076   -45.8681     0.5090 O.2        1          -0.5353
     11 C8          7.8093   -47.9251    -0.1345 C.ar       1          -0.1219
     12 C9          9.1680   -47.6519    -0.3746 C.ar       1          -0.0580
     13 C10         9.8179   -46.4676     0.2930 C.3        1           0.0509
     14 N2         11.1251   -46.8657     0.8322 N.4        1          -0.3735
     15 H1         11.5853   -47.4812     0.1782 H          1           0.4289
     16 C11        10.9354   -47.5636     2.1110 C.3        1          -0.0646
     17 C12        11.9520   -45.6703     1.0446 C.3        1           0.0513
     18 C13        12.5524   -45.2353    -0.2673 C.ar       1          -0.0851
     19 C14        11.8812   -44.3391    -1.0698 C.ar       1          -0.1566
     20 C15        12.4283   -43.9348    -2.2770 C.ar       1          -0.0787
     21 C16        13.6515   -44.4250    -2.6893 C.ar       1          -0.2078
     22 C17        14.3422   -45.3283    -1.8956 C.ar       1           0.1659
     23 O3         15.5434   -45.8108    -2.2995 O.3        1          -0.2655
     24 C18        16.7033   -45.0732    -1.9092 C.3        1           0.0183
     25 C19        13.7946   -45.7362    -0.6694 C.ar       1          -0.1586
     26 C20        14.5207   -46.6892     0.1852 C.2        1           0.5201
     27 O4         15.3057   -46.2789     1.0291 O.co2      1          -0.7051
     28 O5         14.3392   -47.8916     0.0518 O.co2      1          -0.6310
     29 C21         9.9014   -48.4417    -1.1996 C.ar       1          -0.1235
     30 C22         9.3041   -49.5500    -1.8278 C.ar       1          -0.0197
     31 C23        10.0428   -50.3817    -2.6857 C.ar       1          -0.1129
     32 C24         9.4376   -51.4471    -3.2791 C.ar       1          -0.0938
     33 C25         8.0919   -51.7280    -3.0500 C.ar       1          -0.1091
     34 C26         7.3441   -50.9451    -2.2254 C.ar       1          -0.0977
     35 C27         7.9349   -49.8358    -1.5940 C.ar       1          -0.0586
     36 C28         7.1943   -49.0119    -0.7333 C.ar       1          -0.0402
     37 C29         7.0248   -47.6024     4.6901 C.ar       1          -0.0575
     38 C30         7.1212   -48.0727     5.9854 C.ar       1          -0.1531
     39 H2          7.3068   -49.3635     9.5374 H          1           0.1032
     40 H3          7.7623   -49.8085     7.8753 H          1           0.0570
     41 H4          8.0449   -48.1520     8.4623 H          1           0.0576
     42 H5          3.8715   -47.8268     6.8842 H          1           0.1311
     43 H6          3.7099   -46.9807     4.5785 H          1           0.1272
     44 H7          4.6524   -46.6836     2.4640 H          1           0.0825
     45 H8          6.0970   -45.6780     2.7290 H          1           0.0802
     46 H9          6.5668   -48.5019     2.0859 H          1           0.4022
     47 H10         9.9536   -45.6688    -0.4359 H          1           0.1518
     48 H11         9.1823   -46.1143     1.1052 H          1           0.1494
     49 H12        11.9055   -47.8590     2.5110 H          1           0.1196
     50 H13        10.4384   -46.8988     2.8174 H          1           0.1183
     51 H14        10.3220   -48.4506     1.9534 H          1           0.1183
     52 H15        11.3335   -44.8672     1.4452 H          1           0.1687
     53 H16        12.7498   -45.9011     1.7505 H          1           0.1140
     54 H17        10.9237   -43.9500    -0.7567 H          1           0.1245
     55 H18        11.8944   -43.2321    -2.8995 H          1           0.1272
     56 H19        14.0708   -44.1047    -3.6317 H          1           0.1308
     57 H20        17.5949   -45.5663    -2.2965 H          1           0.0525
     58 H21        16.6434   -44.0620    -2.3118 H          1           0.0515
     59 H22        16.7565   -45.0285    -0.8214 H          1           0.1021
     60 H23        10.9437   -48.2193    -1.3740 H          1           0.1294
     61 H24        11.0863   -50.1767    -2.8740 H          1           0.1341
     62 H25        10.0090   -52.0841    -3.9380 H          1           0.1314
     63 H26         7.6359   -52.5790    -3.5339 H          1           0.1311
     64 H27         6.3022   -51.1741    -2.0571 H          1           0.1344
     65 H28         6.1519   -49.2207    -0.5429 H          1           0.1393
     66 H29         7.9082   -47.5384     4.0720 H          1           0.1334
     67 H30         8.0795   -48.3764     6.3800 H          1           0.1348
@<TRIPOS>BOND
     1    1    2 1
     2    1   39 1
     3    1   40 1
     4    1   41 1
     5    2    3 1
     6    3   38 ar
     7    3    4 ar
     8    4    5 ar
     9    4   42 1
    10    5    6 ar
    11    5   43 1
    12    6    7 1
    13    6   37 ar
    14    7    8 1
    15    7   44 1
    16    7   45 1
    17    8    9 am
    18    8   46 1
    19    9   10 2
    20    9   11 1
    21   11   36 ar
    22   11   12 ar
    23   12   13 1
    24   12   29 ar
    25   13   14 1
    26   13   47 1
    27   13   48 1
    28   14   15 1
    29   14   16 1
    30   14   17 1
    31   16   49 1
    32   16   50 1
    33   16   51 1
    34   17   18 1
    35   17   52 1
    36   17   53 1
    37   18   25 ar
    38   18   19 ar
    39   19   20 ar
    40   19   54 1
    41   20   21 ar
    42   20   55 1
    43   21   22 ar
    44   21   56 1
    45   22   23 1
    46   22   25 ar
    47   23   24 1
    48   24   57 1
    49   24   58 1
    50   24   59 1
    51   25   26 1
    52   26   27 1
    53   26   28 2
    54   29   30 ar
    55   29   60 1
    56   30   35 ar
    57   30   31 ar
    58   31   32 ar
    59   31   61 1
    60   32   33 ar
    61   32   62 1
    62   33   34 ar
    63   33   63 1
    64   34   35 ar
    65   34   64 1
    66   35   36 ar
    67   36   65 1
    68   37   38 ar
    69   37   66 1
    70   38   67 1
