AVX16980_0, 3
##########                 Name:           AVX16980_0
##########          Protonation:                  100
##########               SMILES:   c1ccc2c(c1)/C(=C/c3cccc(c3)C(=O)[O-])/C(=[NH+]2)[O-]
##########            Long Name:   3-[(Z)-(2-oxidoindol-1-ium-3-ylidene)methyl]benzoate
##########          FlexRecCode: 1
##########               Number:                  328
##########   Ligand Source File: /raid1/people/rgc/Examples/sampl4/screening/ligands/build_1//sampl4-hivint-00000
##########           GlobalRank: 87
##########                 Rank:                    1
##########               Setnum:                    1
##########             Matchnum:                18337
##########                Cloud:                    1
##########        Electrostatic:           -31.613087
##########        Van der Waals:           -16.323017
##########  Ligand Polar Desolv:            24.349749
########## Ligand Apolar Desolv:            -1.888904
##########      Internal Energy:             0.000000
##########      Receptor Energy: 0.0
########## Receptor Desolvation:             0.000000
########## Receptor Hydrophobic:             0.000000
##########         Total Energy: -25.48
##########        Ligand Charge:            -1.000000
##########            Arbitrary:    +999.9990
##########     heavy atom count:   20
##########           pose count:    1
##########        Ligand Energy:             0.000000
# num electro vdwattr vdwrepu polsolv apolsol rdesolv rhydroe totalscore fullpol fullapo
#   1  -16.37   -4.42    5.59   13.11   -0.17    0.00    0.00      -2.25   30.79   -0.40
#   2   12.62   -2.03    0.41   -7.74   -0.07    0.00    0.00       3.20  -18.38   -0.16
#   3  -25.07   -3.14    1.66   13.74   -0.18    0.00    0.00     -12.99   30.23   -0.40
#   4   -2.22   -1.03    0.09    2.41   -0.14    0.00    0.00      -0.90    6.82   -0.41
#   5   -0.39   -0.72    0.04    0.44   -0.12    0.00    0.00      -0.75    1.66   -0.43
#   6   -0.84   -0.72    0.07    0.41   -0.09    0.00    0.00      -1.18    1.68   -0.38
#   7    0.23   -0.65    0.06   -0.04   -0.10    0.00    0.00      -0.51   -0.20   -0.45
#   8   -0.26   -0.69    0.04    0.49   -0.11    0.00    0.00      -0.53    1.88   -0.42
#   9    0.69   -1.01    0.10   -2.63   -0.23    0.00    0.00      -3.09   -7.34   -0.64
#  10   -2.03   -1.03    0.15    3.95    0.13    0.00    0.00       1.16    9.94    0.34
#  11    0.63   -1.42    0.30    2.47    0.76    0.00    0.00       2.74    6.02    1.86
#  12   -0.40   -0.04    0.00   -1.07    0.21    0.00    0.00      -1.30   -3.00    0.59
#  13   -0.19   -0.99    0.09   -0.28   -0.27    0.00    0.00      -1.64   -0.80   -0.77
#  14    0.21   -1.04    0.10    0.19   -0.17    0.00    0.00      -0.73    0.51   -0.48
#  15    0.04   -0.67    0.07    0.02   -0.11    0.00    0.00      -0.65    0.08   -0.47
#  16    0.01   -0.52    0.11    0.06   -0.07    0.00    0.00      -0.42    0.37   -0.47
#  17   -0.01   -0.63    0.17    0.07   -0.08    0.00    0.00      -0.47    0.43   -0.48
#  18    0.01   -0.75    0.12    0.34   -0.10    0.00    0.00      -0.39    1.51   -0.44
#  19   -0.34   -1.50    0.72    0.17   -0.11    0.00    0.00      -1.07    0.47   -0.32
#  20   -1.25   -1.45    0.19    0.94   -0.20    0.00    0.00      -1.76    2.24   -0.47
#  21   -0.71   -1.20    0.12    0.85   -0.17    0.00    0.00      -1.11    2.20   -0.45
#  22    0.81   -0.15    0.01   -0.42   -0.04    0.00    0.00       0.21   -2.95   -0.27
#  23    0.39   -0.11    0.01   -0.26   -0.03    0.00    0.00      -0.01   -2.08   -0.28
#  24   -0.27   -0.33    0.06   -0.11   -0.10    0.00    0.00      -0.74   -0.32   -0.28
#  25   -0.02   -0.12    0.01    0.02   -0.03    0.00    0.00      -0.14    0.13   -0.28
#  26    0.00   -0.05    0.00   -0.01   -0.02    0.00    0.00      -0.07   -0.12   -0.28
#  27    0.05   -0.08    0.01   -0.06   -0.02    0.00    0.00      -0.11   -0.72   -0.28
#  28    0.67   -0.66    1.13   -0.83   -0.07    0.00    0.00       0.25   -2.47   -0.22
#  29    0.63   -0.47    0.09   -1.16   -0.11    0.00    0.00      -1.01   -2.83   -0.28
#  30    1.77   -0.26    0.03   -0.70   -0.07    0.00    0.00       0.78   -2.78   -0.27

@<TRIPOS>MOLECULE
       AVX16980_0       100
   30    32     0     0     0



@<TRIPOS>ATOM
      1 O1         13.5801   -47.0777     1.7908 O.co2      1          -0.6868
      2 C1         13.7296   -46.5035     0.7216 C.2        1           0.5219
      3 O2         14.8553   -46.2658     0.3073 O.co2      1          -0.6880
      4 C2         12.5516   -46.1027    -0.0717 C.ar       1          -0.1502
      5 C3         11.2677   -46.3676     0.4018 C.ar       1          -0.0452
      6 C4         10.1586   -45.9839    -0.3562 C.ar       1          -0.1354
      7 C5          8.8014   -46.2575     0.1331 C.2        1           0.0710
      8 C6          8.1585   -45.3393     0.9085 C.2        1          -0.1974
      9 C7          8.5886   -43.9613     1.2081 C.2        1           0.5562
     10 O3          9.6013   -43.4206     0.8034 O.3        1          -0.4794
     11 N1          7.6462   -43.4017     2.0205 N.pl3      1          -0.6677
     12 H1          7.6871   -42.4963     2.3664 H          1           0.4138
     13 C8          6.6191   -44.3004     2.2868 C.ar       1           0.1486
     14 C9          5.4635   -44.1786     3.0514 C.ar       1          -0.1442
     15 C10         4.5879   -45.2399     3.1579 C.ar       1          -0.0893
     16 C11         4.8465   -46.4351     2.5079 C.ar       1          -0.1450
     17 C12         5.9879   -46.5748     1.7447 C.ar       1          -0.0674
     18 C13         6.8742   -45.5086     1.6261 C.ar       1          -0.0942
     19 C14        10.3457   -45.3364    -1.5850 C.ar       1          -0.0489
     20 C15        11.6206   -45.0791    -2.0452 C.ar       1          -0.1511
     21 C16        12.7211   -45.4510    -1.2975 C.ar       1          -0.0568
     22 H2         11.1310   -46.8672     1.3495 H          1           0.1304
     23 H3          8.3126   -47.1863    -0.1213 H          1           0.1421
     24 H4          5.2512   -43.2516     3.5632 H          1           0.1238
     25 H5          3.6929   -45.1376     3.7537 H          1           0.1272
     26 H6          4.1543   -47.2592     2.5987 H          1           0.1270
     27 H7          6.1905   -47.5069     1.2383 H          1           0.1282
     28 H8          9.4902   -45.0386    -2.1732 H          1           0.1128
     29 H9         11.7591   -44.5806    -2.9931 H          1           0.1164
     30 H10        13.7156   -45.2415    -1.6627 H          1           0.1277
@<TRIPOS>BOND
     1    1    2 1
     2    2    3 2
     3    2    4 1
     4    4   21 ar
     5    4    5 ar
     6    5    6 ar
     7    5   22 1
     8    6    7 1
     9    6   19 ar
    10    7    8 2
    11    7   23 1
    12    8   18 1
    13    8    9 1
    14    9   10 1
    15    9   11 2
    16   11   12 1
    17   11   13 1
    18   13   18 ar
    19   13   14 ar
    20   14   15 ar
    21   14   24 1
    22   15   16 ar
    23   15   25 1
    24   16   17 ar
    25   16   26 1
    26   17   18 ar
    27   17   27 1
    28   19   20 ar
    29   19   28 1
    30   20   21 ar
    31   20   29 1
    32   21   30 1
