AVX17375_2, 3
##########                 Name:           AVX17375_0
##########          Protonation:                  100
##########               SMILES:   c1ccc2c(c1)C[C@@H]([C@H]2Cc3ccc4c(c3C(=O)[O-])OCO4)O
##########            Long Name:   5-[[(1S,2S)-2-hydroxyindan-1-yl]methyl]-1,3-benzodioxole-4-carboxylate
##########          FlexRecCode: 1
##########               Number:                  275
##########   Ligand Source File: /raid1/people/rgc/Examples/sampl4/screening/ligands/build_1//sampl4-hivint-00000
##########           GlobalRank: 75
##########                 Rank:                    1
##########               Setnum:                   10
##########             Matchnum:                12025
##########                Cloud:                    1
##########        Electrostatic:           -34.119183
##########        Van der Waals:           -21.299715
##########  Ligand Polar Desolv:            30.830391
########## Ligand Apolar Desolv:            -2.078599
##########      Internal Energy:             0.000000
##########      Receptor Energy: 0.0
########## Receptor Desolvation:             0.000000
########## Receptor Hydrophobic:             0.000000
##########         Total Energy: -26.67
##########        Ligand Charge:            -1.000000
##########            Arbitrary:    +999.9990
##########     heavy atom count:   23
##########           pose count:    1
##########        Ligand Energy:             0.000000
# num electro vdwattr vdwrepu polsolv apolsol rdesolv rhydroe totalscore fullpol fullapo
#   1   -0.70   -0.24    0.00    1.31    0.20    0.00    0.00       0.58   11.52    1.73
#   2    0.18   -0.31    0.02   -0.26   -0.03    0.00    0.00      -0.39   -1.66   -0.17
#   3   -0.02   -0.36    0.02    0.12   -0.05    0.00    0.00      -0.27    0.74   -0.27
#   4   -0.10   -0.48    0.03    0.18   -0.06    0.00    0.00      -0.43    1.18   -0.43
#   5    0.01   -0.53    0.06    0.10   -0.07    0.00    0.00      -0.43    0.71   -0.47
#   6    0.00   -0.72    0.16    0.11   -0.08    0.00    0.00      -0.52    0.65   -0.47
#   7   -0.24   -0.81    0.12    0.28   -0.11    0.00    0.00      -0.77    1.22   -0.47
#   8   -0.47   -0.91    0.17    0.54   -0.10    0.00    0.00      -0.76    2.23   -0.40
#   9   -0.30   -0.51    0.02    0.38   -0.06    0.00    0.00      -0.47    2.14   -0.35
#  10   -0.27   -0.33    0.01    0.23   -0.03    0.00    0.00      -0.39    1.19   -0.16
#  11   -0.61   -0.66    0.06    0.35   -0.06    0.00    0.00      -0.93    1.12   -0.19
#  12   -0.82   -1.04    0.10    0.52   -0.11    0.00    0.00      -1.34    1.49   -0.32
#  13   -1.03   -1.10    0.10    0.34   -0.14    0.00    0.00      -1.83    0.92   -0.38
#  14   -0.86   -1.95    0.36    0.36   -0.22    0.00    0.00      -2.30    0.78   -0.47
#  15    0.14   -1.86    0.31   -0.22   -0.15    0.00    0.00      -1.78   -0.49   -0.33
#  16   -1.24   -2.00    0.47    2.43    0.25    0.00    0.00      -0.09    4.98    0.52
#  17    1.67   -0.96    0.10   -1.54    0.01    0.00    0.00      -0.71   -3.22    0.02
#  18   -5.69   -1.50    0.26    4.51    0.21    0.00    0.00      -2.20   10.16    0.48
#  19    0.78   -1.72    0.44    0.23   -0.14    0.00    0.00      -0.41    0.55   -0.33
#  20   -1.88   -1.71    0.44    2.34   -0.16    0.00    0.00      -0.97    5.77   -0.40
#  21   17.88   -3.56    1.81   -9.64   -0.05    0.00    0.00       6.43  -20.55   -0.11
#  22  -25.56   -6.56    5.53   18.02   -0.23    0.00    0.00      -8.80   32.54   -0.42
#  23  -20.76   -4.68    5.00   14.61   -0.18    0.00    0.00      -6.00   32.51   -0.39
#  24    0.16    0.00    0.00   -0.18    0.04    0.00    0.00       0.03   -4.89    1.24
#  25    0.04   -0.17    0.04   -0.18   -0.04    0.00    0.00      -0.32   -1.26   -0.27
#  26    0.01   -0.26    0.05   -0.21   -0.06    0.00    0.00      -0.48   -1.07   -0.28
#  27   -0.01   -0.05    0.00   -0.04   -0.01    0.00    0.00      -0.12   -1.02   -0.28
#  28   -0.03   -0.07    0.00   -0.06   -0.02    0.00    0.00      -0.19   -0.87   -0.28
#  29   -0.11   -0.17    0.06   -0.09   -0.03    0.00    0.00      -0.33   -0.77   -0.28
#  30    0.12   -0.22    0.05   -0.26   -0.05    0.00    0.00      -0.36   -1.32   -0.28
#  31    0.74   -0.47    0.32   -0.25   -0.06    0.00    0.00       0.28   -1.18   -0.27
#  32    0.65   -0.11    0.01    0.09   -0.03    0.00    0.00       0.61    0.76   -0.23
#  33    0.75   -0.23    0.03   -0.06   -0.06    0.00    0.00       0.43   -0.23   -0.25
#  34    1.00   -0.37    0.09   -0.70   -0.08    0.00    0.00      -0.05   -2.51   -0.28
#  35    0.97   -0.20    0.02   -0.48   -0.06    0.00    0.00       0.26   -2.37   -0.28
#  36    0.44   -0.72    0.39   -0.97   -0.13    0.00    0.00      -1.00   -2.14   -0.28
#  37    0.33   -0.40    0.24   -0.58   -0.07    0.00    0.00      -0.49   -2.43   -0.28
#  38    0.70   -0.26    0.02   -0.52   -0.09    0.00    0.00      -0.15   -1.69   -0.28

@<TRIPOS>MOLECULE
       AVX17375_0       100
   38    41     0     0     0



@<TRIPOS>ATOM
      1 O1          8.4453   -48.0596     1.0696 O.3        1          -0.5505
      2 C1          9.6640   -47.5648     1.6280 C.3        1           0.1082
      3 C2         10.3037   -48.6122     2.5641 C.3        1          -0.1111
      4 C3         11.2462   -49.4059     1.6851 C.ar       1          -0.0965
      5 C4         11.8377   -50.6415     1.8896 C.ar       1          -0.1130
      6 C5         12.6766   -51.1774     0.9323 C.ar       1          -0.1278
      7 C6         12.9275   -50.4789    -0.2341 C.ar       1          -0.1224
      8 C7         12.3387   -49.2468    -0.4398 C.ar       1          -0.0926
      9 C8         11.4971   -48.7077     0.5190 C.ar       1          -0.0654
     10 C9         10.7402   -47.3968     0.5345 C.3        1          -0.0494
     11 C10        11.6820   -46.2444     0.8890 C.3        1          -0.0577
     12 C11        12.4288   -45.8080    -0.3451 C.ar       1          -0.0582
     13 C12        11.7362   -45.3406    -1.4399 C.ar       1          -0.1073
     14 C13        12.4145   -44.9370    -2.5791 C.ar       1          -0.1170
     15 C14        13.7955   -44.9989    -2.6289 C.ar       1           0.0171
     16 O2         14.6939   -44.6735    -3.6008 O.3        1          -0.3172
     17 C15        15.9125   -45.3583    -3.2741 C.3        1           0.2109
     18 O3         15.8331   -45.4248    -1.8423 O.3        1          -0.2991
     19 C16        14.5112   -45.4690    -1.5297 C.ar       1           0.0449
     20 C17        13.8268   -45.8722    -0.3768 C.ar       1          -0.0839
     21 C18        14.5722   -46.3653     0.7926 C.2        1           0.5339
     22 O4         14.9361   -45.5832     1.6603 O.co2      1          -0.6813
     23 O5         14.8280   -47.5570     0.8970 O.co2      1          -0.6730
     24 H1          7.7375   -48.1823     1.7168 H          1           0.3719
     25 H2          9.4944   -46.6244     2.1524 H          1           0.0752
     26 H3         10.8571   -48.1180     3.3626 H          1           0.0859
     27 H4          9.5367   -49.2644     2.9820 H          1           0.0765
     28 H5         11.6425   -51.1875     2.8007 H          1           0.1135
     29 H6         13.1365   -52.1410     1.0950 H          1           0.1176
     30 H7         13.5836   -50.8963    -0.9837 H          1           0.1190
     31 H8         12.5353   -48.7018    -1.3513 H          1           0.1190
     32 H9         10.2715   -47.2193    -0.4334 H          1           0.1147
     33 H10        11.1018   -45.4074     1.2775 H          1           0.0905
     34 H11        12.3930   -46.5758     1.6458 H          1           0.0699
     35 H12        10.6579   -45.2885    -1.4106 H          1           0.1281
     36 H13        11.8620   -44.5727    -3.4325 H          1           0.1255
     37 H14        15.9283   -46.3568    -3.7110 H          1           0.1243
     38 H15        16.7814   -44.7812    -3.5904 H          1           0.0770
@<TRIPOS>BOND
     1    1    2 1
     2    1   24 1
     3    2   10 1
     4    2    3 1
     5    2   25 1
     6    3    4 1
     7    3   26 1
     8    3   27 1
     9    4    9 ar
    10    4    5 ar
    11    5    6 ar
    12    5   28 1
    13    6    7 ar
    14    6   29 1
    15    7    8 ar
    16    7   30 1
    17    8    9 ar
    18    8   31 1
    19    9   10 1
    20   10   11 1
    21   10   32 1
    22   11   12 1
    23   11   33 1
    24   11   34 1
    25   12   20 ar
    26   12   13 ar
    27   13   14 ar
    28   13   35 1
    29   14   15 ar
    30   14   36 1
    31   15   19 ar
    32   15   16 1
    33   16   17 1
    34   17   18 1
    35   17   37 1
    36   17   38 1
    37   18   19 1
    38   19   20 ar
    39   20   21 1
    40   21   22 1
    41   21   23 2
