AVX101124_1, 3
##########                 Name:          AVX101124_0
##########          Protonation:                  100
##########               SMILES:   c1ccc\2c(c1)C[C@@H](/C2=C\c3ccc4c(c3C(=O)[O-])OCO4)NC(=O)CCCCC[NH3+]
##########            Long Name:   zaniumylhexanoylamino)indan-1-ylidene]methyl]-1,3-benzodioxole-4-carboxylate
##########          FlexRecCode: 1
##########               Number:                  690
##########   Ligand Source File: /raid1/people/rgc/Examples/sampl4/screening/ligands/build_1//sampl4-hivint-00000
##########           GlobalRank: 27
##########                 Rank:                    1
##########               Setnum:                    6
##########             Matchnum:                18718
##########                Cloud:                    1
##########        Electrostatic:           -27.685190
##########        Van der Waals:           -24.595190
##########  Ligand Polar Desolv:            21.366291
########## Ligand Apolar Desolv:            -2.273253
##########      Internal Energy:             0.000000
##########      Receptor Energy: 0.0
########## Receptor Desolvation:             0.000000
########## Receptor Hydrophobic:             0.000000
##########         Total Energy: -33.19
##########        Ligand Charge:             0.000000
##########            Arbitrary:    +999.9990
##########     heavy atom count:   31
##########           pose count:    1
##########        Ligand Energy:             0.000000
# num electro vdwattr vdwrepu polsolv apolsol rdesolv rhydroe totalscore fullpol fullapo
#   1    0.09   -0.13    0.00   -1.00    0.04    0.00    0.00      -0.99  -19.41    0.86
#   2   -0.09    0.00    0.00    0.51    0.02    0.00    0.00       0.43   15.93    0.60
#   3   -0.06    0.00    0.00    0.26    0.01    0.00    0.00       0.21   14.85    0.58
#   4    0.18    0.00    0.00    0.42    0.02    0.00    0.00       0.62   15.20    0.58
#   5    0.00   -0.13    0.00    0.05   -0.03    0.00    0.00      -0.11    0.70   -0.49
#   6    0.04   -0.08    0.00   -0.13   -0.01    0.00    0.00      -0.19   -2.85   -0.24
#   7   -0.02   -0.12    0.00   -0.10   -0.02    0.00    0.00      -0.25   -1.42   -0.22
#   8    0.01   -0.44    0.09   -0.08   -0.03    0.00    0.00      -0.44   -0.47   -0.19
#   9   -0.19   -0.56    0.09   -0.02   -0.06    0.00    0.00      -0.74   -0.09   -0.24
#  10    1.87   -1.19    0.45   -0.42   -0.14    0.00    0.00       0.57   -1.90   -0.65
#  11   -2.27   -2.42    2.10    0.72    0.09    0.00    0.00      -1.78    2.99    0.38
#  12   -4.03   -0.67    0.06    0.94    0.40    0.00    0.00      -3.30    4.47    1.88
#  13    1.16   -0.50    0.06   -0.28   -0.04    0.00    0.00       0.40   -1.27   -0.20
#  14   -0.30   -0.51    0.11    0.05   -0.06    0.00    0.00      -0.71    0.25   -0.28
#  15   -0.20   -0.37    0.02    0.07   -0.06    0.00    0.00      -0.54    0.49   -0.44
#  16   -0.07   -0.25    0.01    0.03   -0.05    0.00    0.00      -0.34    0.33   -0.47
#  17   -0.01   -0.22    0.00    0.03   -0.04    0.00    0.00      -0.24    0.32   -0.47
#  18    0.08   -0.56    0.10    0.13   -0.07    0.00    0.00      -0.32    0.93   -0.47
#  19    0.03   -0.98    0.40    0.30   -0.09    0.00    0.00      -0.33    1.57   -0.47
#  20   -0.09   -0.46    0.02    0.20   -0.07    0.00    0.00      -0.40    1.23   -0.43
#  21   -0.95   -0.57    0.02    0.22   -0.08    0.00    0.00      -1.37    0.98   -0.38
#  22    0.09   -0.90    0.09    0.43   -0.11    0.00    0.00      -0.41    1.43   -0.37
#  23   -0.36   -1.18    0.19   -0.03   -0.14    0.00    0.00      -1.52   -0.09   -0.37
#  24   -1.00   -1.42    0.15    0.40   -0.18    0.00    0.00      -2.05    0.88   -0.39
#  25   -0.63   -2.50    0.75    0.13   -0.23    0.00    0.00      -2.49    0.27   -0.47
#  26    0.07   -1.98    0.39   -0.12   -0.15    0.00    0.00      -1.79   -0.25   -0.33
#  27   -2.17   -1.76    0.36    1.12    0.27    0.00    0.00      -2.18    2.21    0.53
#  28    2.40   -0.92    0.09   -0.68    0.01    0.00    0.00       0.90   -1.46    0.02
#  29   -6.35   -1.86    0.55    2.70    0.15    0.00    0.00      -4.81    6.07    0.34
#  30    1.34   -1.97    0.88   -0.31   -0.14    0.00    0.00      -0.21   -0.72   -0.32
#  31   -2.18   -1.77    0.62    1.72   -0.17    0.00    0.00      -1.78    4.25   -0.41
#  32   13.96   -2.39    0.61   -6.48   -0.07    0.00    0.00       5.63  -14.72   -0.17
#  33  -21.89   -4.99    2.86   12.09   -0.17    0.00    0.00     -12.09   23.03   -0.33
#  34  -13.95   -1.89    0.42   10.36   -0.22    0.00    0.00      -5.28   25.65   -0.55
#  35   -0.03   -0.09    0.01    0.31   -0.02    0.00    0.00       0.17    3.65   -0.28
#  36   -0.03   -0.02    0.00    0.06    0.00    0.00    0.00      -0.01    3.10   -0.28
#  37   -0.03   -0.03    0.00    0.04   -0.01    0.00    0.00      -0.02    1.55   -0.28
#  38   -0.01   -0.01    0.00    0.02    0.00    0.00    0.00       0.00    2.04   -0.28
#  39    0.01   -0.02    0.00    0.02   -0.01    0.00    0.00       0.00    1.05   -0.28
#  40    0.04   -0.03    0.00    0.01   -0.01    0.00    0.00       0.02    0.52   -0.28
#  41    0.02   -0.16    0.02    0.01   -0.04    0.00    0.00      -0.14    0.09   -0.28
#  42   -0.09   -0.29    0.23    0.05   -0.04    0.00    0.00      -0.14    0.33   -0.28
#  43    0.24   -0.25    0.04    0.09   -0.07    0.00    0.00       0.05    0.36   -0.28
#  44    0.04   -0.16    0.03   -0.02   -0.04    0.00    0.00      -0.14   -0.13   -0.28
#  45    2.63   -0.01    0.00   -0.35    0.06    0.00    0.00       2.33   -3.22    0.58
#  46    0.82   -0.31    0.10   -0.16   -0.05    0.00    0.00       0.41   -0.65   -0.18
#  47    0.37   -0.50    0.64   -0.06   -0.07    0.00    0.00       0.38   -0.25   -0.28
#  48    0.18   -0.09    0.01   -0.03   -0.03    0.00    0.00       0.04   -0.29   -0.27
#  49    0.03   -0.04    0.00    0.00   -0.01    0.00    0.00      -0.02    0.06   -0.28
#  50   -0.01   -0.03    0.00    0.00   -0.01    0.00    0.00      -0.04    0.00   -0.28
#  51   -0.14   -0.16    0.04   -0.09   -0.03    0.00    0.00      -0.38   -0.75   -0.28
#  52   -0.48   -0.82    2.23   -0.30   -0.07    0.00    0.00       0.57   -1.31   -0.28
#  53    1.36   -0.26    0.05   -0.52   -0.06    0.00    0.00       0.57   -1.96   -0.21
#  54    0.92   -0.28    0.03   -0.35   -0.06    0.00    0.00       0.27   -1.15   -0.19
#  55    0.10   -1.23    1.40   -0.26   -0.14    0.00    0.00      -0.12   -0.53   -0.28
#  56    0.69   -0.32    0.11   -0.12   -0.06    0.00    0.00       0.31   -0.53   -0.28
#  57    1.16   -0.29    0.05   -0.21   -0.09    0.00    0.00       0.61   -0.65   -0.28

@<TRIPOS>MOLECULE
      AVX101124_0       100
   57    60     0     0     0



@<TRIPOS>ATOM
      1 N1          9.6901   -50.5209     2.5637 N.4        1          -0.6382
      2 H1          9.5814   -49.7600     3.2175 H          1           0.4365
      3 H2          8.8074   -50.9966     2.4518 H          1           0.4353
      4 H3          9.9920   -50.1577     1.6720 H          1           0.4344
      5 C1         10.6939   -51.4646     3.0732 C.3        1          -0.0106
      6 C2         10.8586   -52.6184     2.0819 C.3        1          -0.1512
      7 C3         11.3163   -52.0677     0.7299 C.3        1          -0.1209
      8 C4         12.6547   -51.3462     0.8996 C.3        1          -0.1010
      9 C5         13.1124   -50.7955    -0.4525 C.3        1          -0.1464
     10 C6         12.0826   -49.8274    -0.9751 C.2        1           0.5159
     11 O1         11.5343   -50.0393    -2.0360 O.2        1          -0.5487
     12 N2         11.7709   -48.7260    -0.2636 N.am       1          -0.7097
     13 C7         10.7697   -47.7848    -0.7717 C.3        1           0.1865
     14 C8          9.3927   -48.4571    -0.8738 C.3        1          -0.0834
     15 C9          8.6858   -48.1094     0.4133 C.ar       1          -0.0982
     16 C10         7.5306   -48.6139     0.9786 C.ar       1          -0.1095
     17 C11         7.0931   -48.1467     2.2046 C.ar       1          -0.1241
     18 C12         7.8081   -47.1703     2.8762 C.ar       1          -0.1187
     19 C13         8.9548   -46.6463     2.3186 C.ar       1          -0.0984
     20 C14         9.3951   -47.1036     1.0716 C.ar       1          -0.0371
     21 C15        10.5244   -46.6727     0.2243 C.2        1          -0.1547
     22 C16        11.2043   -45.5160     0.3197 C.2        1           0.0091
     23 C17        12.2362   -45.1860    -0.6734 C.ar       1          -0.0276
     24 C18        11.8987   -44.4790    -1.8272 C.ar       1          -0.1137
     25 C19        12.8671   -44.1680    -2.7606 C.ar       1          -0.1014
     26 C20        14.1845   -44.5533    -2.5653 C.ar       1           0.0074
     27 O2         15.3087   -44.3762    -3.3160 O.3        1          -0.3189
     28 C21        16.2586   -45.3523    -2.8629 C.3        1           0.2038
     29 O3         15.8825   -45.5057    -1.4862 O.3        1          -0.2760
     30 C22        14.5470   -45.2607    -1.4204 C.ar       1           0.0726
     31 C23        13.5784   -45.5787    -0.4618 C.ar       1          -0.1049
     32 C24        13.9511   -46.3186     0.7499 C.2        1           0.5194
     33 O4         14.2953   -45.7119     1.7557 O.co2      1          -0.6732
     34 O5         13.9177   -47.5421     0.7545 O.co2      1          -0.6662
     35 H4         11.6475   -50.9505     3.1941 H          1           0.1334
     36 H5         10.3678   -51.8570     4.0364 H          1           0.1343
     37 H6         11.6034   -53.3187     2.4600 H          1           0.0888
     38 H7          9.9050   -53.1324     1.9609 H          1           0.0877
     39 H8         11.4336   -52.8896     0.0235 H          1           0.0746
     40 H9         10.5714   -51.3674     0.3518 H          1           0.0765
     41 H10        12.5374   -50.5243     1.6058 H          1           0.0744
     42 H11        13.3995   -52.0465     1.2778 H          1           0.0724
     43 H12        14.0660   -50.2816    -0.3314 H          1           0.0928
     44 H13        13.2298   -51.6175    -1.1587 H          1           0.0960
     45 H14        12.2095   -48.5564     0.5848 H          1           0.4053
     46 H15        11.0761   -47.3796    -1.7360 H          1           0.1035
     47 H16         8.8412   -48.0617    -1.7268 H          1           0.0828
     48 H17         9.5051   -49.5375    -0.9638 H          1           0.0790
     49 H18         6.9668   -49.3759     0.4610 H          1           0.1161
     50 H19         6.1888   -48.5456     2.6399 H          1           0.1205
     51 H20         7.4669   -46.8180     3.8384 H          1           0.1230
     52 H21         9.5117   -45.8840     2.8429 H          1           0.1266
     53 H22        10.9916   -44.8297     1.1261 H          1           0.1614
     54 H23        10.8757   -44.1740    -1.9912 H          1           0.1335
     55 H24        12.5960   -43.6202    -3.6510 H          1           0.1266
     56 H25        16.1433   -46.2904    -3.4058 H          1           0.1245
     57 H26        17.2776   -44.9749    -2.9494 H          1           0.0780
@<TRIPOS>BOND
     1    1    2 1
     2    1    3 1
     3    1    4 1
     4    1    5 1
     5    5    6 1
     6    5   35 1
     7    5   36 1
     8    6    7 1
     9    6   37 1
    10    6   38 1
    11    7    8 1
    12    7   39 1
    13    7   40 1
    14    8    9 1
    15    8   41 1
    16    8   42 1
    17    9   10 1
    18    9   43 1
    19    9   44 1
    20   10   11 2
    21   10   12 am
    22   12   13 1
    23   12   45 1
    24   13   21 1
    25   13   14 1
    26   13   46 1
    27   14   15 1
    28   14   47 1
    29   14   48 1
    30   15   20 ar
    31   15   16 ar
    32   16   17 ar
    33   16   49 1
    34   17   18 ar
    35   17   50 1
    36   18   19 ar
    37   18   51 1
    38   19   20 ar
    39   19   52 1
    40   20   21 1
    41   21   22 2
    42   22   23 1
    43   22   53 1
    44   23   31 ar
    45   23   24 ar
    46   24   25 ar
    47   24   54 1
    48   25   26 ar
    49   25   55 1
    50   26   30 ar
    51   26   27 1
    52   27   28 1
    53   28   29 1
    54   28   56 1
    55   28   57 1
    56   29   30 1
    57   30   31 ar
    58   31   32 1
    59   32   33 1
    60   32   34 2
