AVX17679_0, 3
##########                 Name:           AVX17679_0
##########          Protonation:                  100
##########               SMILES:   c1ccc2c(c1)c(no2)CC(=O)[O-]
##########            Long Name:   2-(1,2-benzoxazol-3-yl)acetate
##########          FlexRecCode: 1
##########               Number:                   13
##########   Ligand Source File: /raid1/people/rgc/Examples/sampl4/screening/ligands/build_1//sampl4-hivint-00000
##########           GlobalRank: 79
##########                 Rank:                    1
##########               Setnum:                    1
##########             Matchnum:                 7958
##########                Cloud:                    1
##########        Electrostatic:           -34.480030
##########        Van der Waals:           -15.749742
##########  Ligand Polar Desolv:            25.614250
########## Ligand Apolar Desolv:            -1.912445
##########      Internal Energy:             0.000000
##########      Receptor Energy: 0.0
########## Receptor Desolvation:             0.000000
########## Receptor Hydrophobic:             0.000000
##########         Total Energy: -26.53
##########        Ligand Charge:            -1.000000
##########            Arbitrary:    +999.9990
##########     heavy atom count:   13
##########           pose count:    1
##########        Ligand Energy:             0.000000
# num electro vdwattr vdwrepu polsolv apolsol rdesolv rhydroe totalscore fullpol fullapo
#   1  -19.47   -4.51    3.34   14.32   -0.20    0.00    0.00      -6.53   28.74   -0.41
#   2   13.03   -2.25    0.56   -6.93   -0.07    0.00    0.00       4.34  -16.02   -0.16
#   3  -25.73   -3.53    2.61   12.83   -0.20    0.00    0.00     -14.01   28.18   -0.43
#   4   -1.79   -0.61    0.03    0.78   -0.10    0.00    0.00      -1.67    2.29   -0.28
#   5    2.06   -0.94    0.07   -1.17   -0.22    0.00    0.00      -0.20   -3.54   -0.66
#   6   -2.69   -1.38    0.15    4.07    0.50    0.00    0.00       0.65    9.82    1.20
#   7   -0.73   -1.59    0.27    1.41   -0.04    0.00    0.00      -0.69    2.91   -0.09
#   8    0.55   -1.33    0.16   -0.13   -0.16    0.00    0.00      -0.90   -0.30   -0.35
#   9   -0.67   -1.63    0.25    0.73   -0.24    0.00    0.00      -1.56    1.46   -0.48
#  10   -0.26   -1.34    0.13    0.00   -0.23    0.00    0.00      -1.70   -0.01   -0.47
#  11   -0.45   -1.28    0.22    0.36   -0.18    0.00    0.00      -1.33    0.94   -0.47
#  12   -0.17   -1.19    0.23    0.43   -0.16    0.00    0.00      -0.85    1.30   -0.47
#  13   -1.47   -1.01    0.17    1.72   -0.14    0.00    0.00      -0.75    5.30   -0.44
#  14    1.02   -0.19    0.02   -0.58   -0.05    0.00    0.00       0.23   -3.46   -0.28
#  15    0.87   -0.14    0.01   -0.36   -0.04    0.00    0.00       0.35   -2.84   -0.28
#  16    0.59   -0.60    0.29   -0.73   -0.13    0.00    0.00      -0.57   -1.63   -0.28
#  17    0.35   -0.33    0.04   -0.19   -0.10    0.00    0.00      -0.23   -0.53   -0.28
#  18   -0.06   -0.36    0.15   -0.34   -0.09    0.00    0.00      -0.70   -1.09   -0.28
#  19    0.52   -0.31    0.08   -0.59   -0.08    0.00    0.00      -0.39   -2.06   -0.28

@<TRIPOS>MOLECULE
       AVX17679_0       100
   19    20     0     0     0



@<TRIPOS>ATOM
      1 O1         13.6883   -45.1822     1.4785 O.co2      1          -0.6817
      2 C1         13.7757   -46.1143     0.6973 C.2        1           0.5039
      3 O2         14.8666   -46.5946     0.4411 O.co2      1          -0.6890
      4 C2         12.5348   -46.6765     0.0532 C.3        1          -0.1314
      5 C3         11.8492   -45.5966    -0.7438 C.2        1           0.1871
      6 N1         12.0544   -45.3172    -1.9939 N.2        1          -0.2984
      7 O3         11.2244   -44.2420    -2.3854 O.3        1          -0.1093
      8 C4         10.4805   -43.8464    -1.3328 C.ar       1           0.0811
      9 C5          9.5207   -42.8565    -1.1589 C.ar       1          -0.1335
     10 C6          8.9214   -42.6922     0.0711 C.ar       1          -0.0710
     11 C7          9.2674   -43.5070     1.1400 C.ar       1          -0.1600
     12 C8         10.2086   -44.4859     0.9898 C.ar       1          -0.0310
     13 C9         10.8235   -44.6731    -0.2504 C.ar       1          -0.1770
     14 H1         12.8091   -47.4978    -0.6087 H          1           0.0919
     15 H2         11.8585   -47.0427     0.8256 H          1           0.0902
     16 H3          9.2455   -42.2176    -1.9851 H          1           0.1330
     17 H4          8.1759   -41.9223     0.2046 H          1           0.1337
     18 H5          8.7893   -43.3660     2.0980 H          1           0.1297
     19 H6         10.4728   -45.1162     1.8260 H          1           0.1317
@<TRIPOS>BOND
     1    1    2 1
     2    2    3 2
     3    2    4 1
     4    4    5 1
     5    4   14 1
     6    4   15 1
     7    5   13 1
     8    5    6 2
     9    6    7 1
    10    7    8 1
    11    8   13 ar
    12    8    9 ar
    13    9   10 ar
    14    9   16 1
    15   10   11 ar
    16   10   17 1
    17   11   12 ar
    18   11   18 1
    19   12   13 ar
    20   12   19 1
