AVX17287_0, 3
##########                 Name:           AVX17287_0
##########          Protonation:                  100
##########               SMILES:   c1ccc2c(c1)c(c[nH]2)Cc3ccc4c(c3C(=O)[O-])OCO4
##########            Long Name:   5-(1H-indol-3-ylmethyl)-1,3-benzodioxole-4-carboxylate
##########          FlexRecCode: 1
##########               Number:                  342
##########   Ligand Source File: /raid1/people/rgc/Examples/sampl4/screening/ligands/build_1//sampl4-hivint-00000
##########           GlobalRank: 58
##########                 Rank:                    1
##########               Setnum:                   32
##########             Matchnum:                 8667
##########                Cloud:                    1
##########        Electrostatic:           -32.772343
##########        Van der Waals:           -21.569519
##########  Ligand Polar Desolv:            28.065718
########## Ligand Apolar Desolv:            -2.429961
##########      Internal Energy:             0.000000
##########      Receptor Energy: 0.0
########## Receptor Desolvation:             0.000000
########## Receptor Hydrophobic:             0.000000
##########         Total Energy: -28.71
##########        Ligand Charge:            -1.000000
##########            Arbitrary:    +999.9990
##########     heavy atom count:   22
##########           pose count:    1
##########        Ligand Energy:             0.000000
# num electro vdwattr vdwrepu polsolv apolsol rdesolv rhydroe totalscore fullpol fullapo
#   1  -28.61   -6.47    6.79   16.20   -0.21    0.00    0.00     -12.30   31.25   -0.41
#   2   16.71   -3.24    1.57   -9.17   -0.06    0.00    0.00       5.81  -19.69   -0.13
#   3  -17.33   -3.65    2.36   13.60   -0.17    0.00    0.00      -5.18   29.63   -0.37
#   4   -1.78   -1.77    0.63    2.29   -0.16    0.00    0.00      -0.80    5.67   -0.40
#   5    0.73   -1.82    0.61    0.28   -0.14    0.00    0.00      -0.34    0.64   -0.33
#   6   -5.53   -1.70    0.48    4.62    0.22    0.00    0.00      -1.91    9.95    0.48
#   7    2.25   -1.44    0.32   -1.60    0.01    0.00    0.00      -0.46   -3.11    0.02
#   8   -1.10   -2.12    0.58    2.49    0.26    0.00    0.00       0.11    5.02    0.52
#   9    0.09   -2.05    0.41   -0.14   -0.15    0.00    0.00      -1.83   -0.30   -0.33
#  10   -0.70   -2.59    0.87    0.38   -0.22    0.00    0.00      -2.27    0.80   -0.47
#  11   -0.98   -1.35    0.19    0.39   -0.17    0.00    0.00      -1.93    0.98   -0.44
#  12   -0.62   -1.00    0.09    0.49   -0.12    0.00    0.00      -1.16    1.42   -0.36
#  13    0.00   -0.53    0.03   -0.02   -0.07    0.00    0.00      -0.59   -0.07   -0.24
#  14   -0.91   -0.63    0.04    0.95   -0.09    0.00    0.00      -0.64    4.13   -0.39
#  15    0.33   -0.74    0.04   -0.19   -0.29    0.00    0.00      -0.86   -0.62   -0.94
#  16   -1.58   -1.20    0.21    3.47    0.36    0.00    0.00       1.27   11.14    1.17
#  17    0.29   -1.44    0.69   -0.25   -0.22    0.00    0.00      -0.93   -0.89   -0.78
#  18   -0.32   -2.32    1.39    0.53   -0.15    0.00    0.00      -0.87    1.68   -0.48
#  19   -0.03   -1.93    1.37    0.16   -0.12    0.00    0.00      -0.56    0.60   -0.47
#  20   -0.19   -0.91    0.26    0.20   -0.10    0.00    0.00      -0.74    1.00   -0.47
#  21   -0.26   -0.70    0.13    0.20   -0.09    0.00    0.00      -0.72    1.01   -0.47
#  22   -0.38   -0.83    0.24    0.53   -0.09    0.00    0.00      -0.53    2.47   -0.44
#  23    1.35   -1.02    1.04   -1.18   -0.14    0.00    0.00       0.04   -2.36   -0.28
#  24    0.84   -0.33    0.05   -0.61   -0.10    0.00    0.00      -0.15   -1.70   -0.28
#  25    0.16   -1.35    2.52   -1.06   -0.14    0.00    0.00       0.12   -2.08   -0.28
#  26    0.95   -0.32    0.13   -0.62   -0.08    0.00    0.00       0.07   -2.20   -0.27
#  27    0.65   -0.13    0.01   -0.29   -0.03    0.00    0.00       0.21   -2.56   -0.28
#  28    0.95   -0.28    0.05   -0.05   -0.07    0.00    0.00       0.60   -0.18   -0.24
#  29    0.67   -0.15    0.01   -0.55   -0.04    0.00    0.00      -0.06   -3.24   -0.23
#  30    0.81   -0.03    0.00   -2.06    0.18    0.00    0.00      -1.10   -6.84    0.60
#  31    0.24   -0.65    0.40   -0.51   -0.10    0.00    0.00      -0.62   -1.42   -0.28
#  32   -0.01   -0.36    0.18   -0.20   -0.06    0.00    0.00      -0.45   -0.88   -0.28
#  33    0.02   -0.10    0.01   -0.09   -0.03    0.00    0.00      -0.18   -0.87   -0.28
#  34    0.50   -0.10    0.01   -0.14   -0.03    0.00    0.00       0.24   -1.38   -0.27

@<TRIPOS>MOLECULE
       AVX17287_0       100
   34    37     0     0     0



@<TRIPOS>ATOM
      1 O1         15.4449   -45.7827     0.9139 O.co2      1          -0.6818
      2 C1         14.2324   -45.8772     0.7808 C.2        1           0.5374
      3 O2         13.5383   -46.2233     1.7267 O.co2      1          -0.6769
      4 C2         13.6084   -45.5684    -0.5159 C.ar       1          -0.0863
      5 C3         14.3992   -45.1772    -1.6030 C.ar       1           0.0447
      6 O3         15.7395   -45.0021    -1.7454 O.3        1          -0.3001
      7 C4         15.9231   -44.1782    -2.9065 C.3        1           0.2108
      8 O4         14.7825   -44.5375    -3.7006 O.3        1          -0.3177
      9 C5         13.7975   -44.8872    -2.8258 C.ar       1           0.0130
     10 C6         12.4245   -44.9869    -2.9613 C.ar       1          -0.1155
     11 C7         11.6412   -45.3741    -1.8856 C.ar       1          -0.1123
     12 C8         12.2209   -45.6694    -0.6717 C.ar       1          -0.0493
     13 C9         11.3610   -46.0956     0.4902 C.3        1          -0.0004
     14 C10         9.9158   -46.1178     0.0640 C.2        1          -0.1731
     15 C11         9.0454   -45.0987     0.1390 C.2        1           0.0925
     16 N1          7.8256   -45.4906    -0.3412 N.pl3      1          -0.5958
     17 C12         7.8828   -46.8051    -0.7471 C.ar       1           0.0883
     18 C13         6.9510   -47.6785    -1.2990 C.ar       1          -0.1308
     19 C14         7.3216   -48.9690    -1.6068 C.ar       1          -0.1117
     20 C15         8.6173   -49.4088    -1.3720 C.ar       1          -0.1546
     21 C16         9.5483   -48.5679    -0.8308 C.ar       1          -0.0700
     22 C17         9.1959   -47.2539    -0.5165 C.ar       1          -0.0906
     23 H1         15.8975   -43.1209    -2.6426 H          1           0.1234
     24 H2         16.8511   -44.4290    -3.4202 H          1           0.0764
     25 H3         11.9605   -44.7616    -3.9101 H          1           0.1252
     26 H4         10.5700   -45.4485    -2.0010 H          1           0.1290
     27 H5         11.6590   -47.0920     0.8164 H          1           0.0752
     28 H6         11.4866   -45.3913     1.3126 H          1           0.0899
     29 H7          9.2739   -44.1150     0.5220 H          1           0.1838
     30 H8          7.0378   -44.9266    -0.3885 H          1           0.4131
     31 H9          5.9405   -47.3460    -1.4851 H          1           0.1137
     32 H10         6.5967   -49.6457    -2.0349 H          1           0.1176
     33 H11         8.8914   -50.4239    -1.6188 H          1           0.1158
     34 H12        10.5544   -48.9171    -0.6510 H          1           0.1175
@<TRIPOS>BOND
     1    1    2 1
     2    2    3 2
     3    2    4 1
     4    4   12 ar
     5    4    5 ar
     6    5    9 ar
     7    5    6 1
     8    6    7 1
     9    7    8 1
    10    7   23 1
    11    7   24 1
    12    8    9 1
    13    9   10 ar
    14   10   11 ar
    15   10   25 1
    16   11   12 ar
    17   11   26 1
    18   12   13 1
    19   13   14 1
    20   13   27 1
    21   13   28 1
    22   14   22 1
    23   14   15 2
    24   15   16 1
    25   15   29 1
    26   16   17 1
    27   16   30 1
    28   17   22 ar
    29   17   18 ar
    30   18   19 ar
    31   18   31 1
    32   19   20 ar
    33   19   32 1
    34   20   21 ar
    35   20   33 1
    36   21   22 ar
    37   21   34 1
