AVX17260_0, 3
##########                 Name:           AVX17260_0
##########          Protonation:                  100
##########               SMILES:   c1ccc2c(c1)[C@H](C(=O)N2)Cc3ccc4c(c3C(=O)[O-])OCO4
##########            Long Name:   5-[[(3R)-2-oxoindolin-3-yl]methyl]-1,3-benzodioxole-4-carboxylate
##########          FlexRecCode: 1
##########               Number:                   58
##########   Ligand Source File: /raid1/people/rgc/Examples/sampl4/screening/ligands/build_1//sampl4-hivint-00000
##########           GlobalRank: 68
##########                 Rank:                    1
##########               Setnum:                    3
##########             Matchnum:                 3037
##########                Cloud:                    1
##########        Electrostatic:           -31.924234
##########        Van der Waals:           -23.242182
##########  Ligand Polar Desolv:            29.325485
########## Ligand Apolar Desolv:            -1.811976
##########      Internal Energy:             0.000000
##########      Receptor Energy: 0.0
########## Receptor Desolvation:             0.000000
########## Receptor Hydrophobic:             0.000000
##########         Total Energy: -27.65
##########        Ligand Charge:            -1.000000
##########            Arbitrary:    +999.9990
##########     heavy atom count:   23
##########           pose count:    1
##########        Ligand Energy:             0.000000
# num electro vdwattr vdwrepu polsolv apolsol rdesolv rhydroe totalscore fullpol fullapo
#   1  -24.27   -5.79    3.94   16.86   -0.23    0.00    0.00      -9.48   30.95   -0.42
#   2   16.22   -2.95    1.04   -9.30   -0.05    0.00    0.00       4.97  -20.31   -0.11
#   3  -17.45   -3.04    1.43   13.59   -0.17    0.00    0.00      -5.65   31.41   -0.39
#   4   -1.76   -1.66    0.45    2.30   -0.16    0.00    0.00      -0.83    5.72   -0.40
#   5    0.72   -1.71    0.43    0.22   -0.14    0.00    0.00      -0.46    0.53   -0.33
#   6   -5.87   -1.53    0.29    4.38    0.21    0.00    0.00      -2.52   10.07    0.48
#   7    1.71   -0.96    0.12   -1.52    0.01    0.00    0.00      -0.63   -3.23    0.02
#   8   -1.23   -1.96    0.44    2.62    0.25    0.00    0.00       0.11    5.36    0.52
#   9    0.17   -1.89    0.31   -0.24   -0.15    0.00    0.00      -1.80   -0.53   -0.33
#  10   -0.79   -2.07    0.40    0.55   -0.22    0.00    0.00      -2.13    1.15   -0.47
#  11   -0.81   -1.18    0.11    0.45   -0.15    0.00    0.00      -1.59    1.13   -0.39
#  12   -0.90   -1.07    0.13    0.64   -0.11    0.00    0.00      -1.32    1.86   -0.32
#  13   -0.43   -0.65    0.06    0.25   -0.05    0.00    0.00      -0.83    0.83   -0.18
#  14   -0.46   -0.34    0.01    0.44   -0.04    0.00    0.00      -0.39    2.14   -0.20
#  15    2.87   -0.52    0.02   -1.83   -0.12    0.00    0.00       0.42   -9.92   -0.66
#  16   -3.31   -1.02    0.21    2.66    0.09    0.00    0.00      -1.37   11.01    0.38
#  17   -1.60   -0.32    0.01    0.86    0.21    0.00    0.00      -0.84    7.37    1.81
#  18    0.14   -0.32    0.01   -0.17   -0.09    0.00    0.00      -0.43   -1.51   -0.76
#  19    0.01   -0.24    0.01    0.05   -0.04    0.00    0.00      -0.21    0.56   -0.48
#  20    0.04   -0.34    0.02    0.03   -0.05    0.00    0.00      -0.30    0.27   -0.47
#  21    0.10   -0.89    0.38    0.20   -0.08    0.00    0.00      -0.29    1.27   -0.47
#  22    0.04   -1.01    0.47    0.36   -0.09    0.00    0.00      -0.22    1.96   -0.47
#  23   -0.21   -0.50    0.03    0.54   -0.06    0.00    0.00      -0.21    3.35   -0.39
#  24    1.19   -0.25    0.02   -0.70   -0.08    0.00    0.00       0.18   -2.48   -0.28
#  25    0.18   -0.46    0.36   -0.45   -0.07    0.00    0.00      -0.44   -1.81   -0.28
#  26    0.27   -0.87    0.67   -1.23   -0.13    0.00    0.00      -1.29   -2.62   -0.28
#  27    0.91   -0.22    0.03   -0.64   -0.06    0.00    0.00       0.00   -2.80   -0.28
#  28    0.91   -0.31    0.06   -0.64   -0.07    0.00    0.00      -0.06   -2.53   -0.27
#  29    0.79   -0.24    0.04   -0.22   -0.06    0.00    0.00       0.30   -0.89   -0.25
#  30    0.75   -0.12    0.01   -0.13   -0.03    0.00    0.00       0.49   -1.05   -0.23
#  31    0.63    0.00    0.00   -0.12    0.02    0.00    0.00       0.53   -3.42    0.59
#  32   -0.02   -0.02    0.00   -0.01   -0.01    0.00    0.00      -0.07   -0.57   -0.28
#  33   -0.05   -0.04    0.00   -0.01   -0.01    0.00    0.00      -0.11   -0.40   -0.28
#  34   -0.13   -0.20    0.07   -0.19   -0.04    0.00    0.00      -0.49   -1.36   -0.28
#  35   -0.28   -0.24    0.11   -0.26   -0.04    0.00    0.00      -0.71   -1.63   -0.28

@<TRIPOS>MOLECULE
       AVX17260_0       100
   35    38     0     0     0



@<TRIPOS>ATOM
      1 O1         14.6935   -45.5791     1.6738 O.co2      1          -0.6800
      2 C1         14.2852   -46.3238     0.7933 C.2        1           0.5351
      3 O2         14.4063   -47.5355     0.9121 O.co2      1          -0.6766
      4 C2         13.6428   -45.7626    -0.4059 C.ar       1          -0.0833
      5 C3         14.4116   -45.4456    -1.5339 C.ar       1           0.0424
      6 O3         15.7465   -45.5560    -1.7781 O.3        1          -0.2993
      7 C4         15.8848   -45.4714    -3.2087 C.3        1           0.2107
      8 O4         14.7441   -44.6932    -3.6169 O.3        1          -0.3171
      9 C5         13.7927   -44.9151    -2.6630 C.ar       1           0.0206
     10 C6         12.4243   -44.7045    -2.6659 C.ar       1          -0.1153
     11 C7         11.6641   -45.0179    -1.5508 C.ar       1          -0.0884
     12 C8         12.2601   -45.5478    -0.4280 C.ar       1          -0.0678
     13 C9         11.4244   -45.8919     0.7779 C.3        1          -0.0439
     14 C10        10.3777   -46.9387     0.3911 C.3        1          -0.0857
     15 C11        11.0488   -48.2208    -0.0536 C.2        1           0.5320
     16 O5         11.7999   -48.3512    -0.9970 O.2        1          -0.4862
     17 N1         10.6565   -49.1870     0.7938 N.am       1          -0.6648
     18 C12         9.7872   -48.7084     1.7747 C.ar       1           0.1403
     19 C13         9.1553   -49.3632     2.8303 C.ar       1          -0.1460
     20 C14         8.3258   -48.6637     3.6818 C.ar       1          -0.0919
     21 C15         8.1144   -47.3095     3.4963 C.ar       1          -0.1418
     22 C16         8.7387   -46.6523     2.4506 C.ar       1          -0.0572
     23 C17         9.5669   -47.3482     1.5990 C.ar       1          -0.1210
     24 H1         16.8110   -44.9618    -3.4747 H          1           0.1238
     25 H2         15.8508   -46.4647    -3.6562 H          1           0.0765
     26 H3         11.9464   -44.2930    -3.5427 H          1           0.1252
     27 H4         10.5974   -44.8492    -1.5635 H          1           0.1252
     28 H5         12.0663   -46.2925     1.5624 H          1           0.0714
     29 H6         10.9238   -44.9944     1.1411 H          1           0.0994
     30 H7          9.7262   -46.5541    -0.3936 H          1           0.1450
     31 H8         10.9446   -50.1110     0.7309 H          1           0.4075
     32 H9          9.3153   -50.4206     2.9816 H          1           0.1215
     33 H10         7.8382   -49.1765     4.4978 H          1           0.1262
     34 H11         7.4636   -46.7665     4.1656 H          1           0.1277
     35 H12         8.5759   -45.5951     2.3024 H          1           0.1356
@<TRIPOS>BOND
     1    1    2 1
     2    2    3 2
     3    2    4 1
     4    4   12 ar
     5    4    5 ar
     6    5    9 ar
     7    5    6 1
     8    6    7 1
     9    7    8 1
    10    7   24 1
    11    7   25 1
    12    8    9 1
    13    9   10 ar
    14   10   11 ar
    15   10   26 1
    16   11   12 ar
    17   11   27 1
    18   12   13 1
    19   13   14 1
    20   13   28 1
    21   13   29 1
    22   14   23 1
    23   14   15 1
    24   14   30 1
    25   15   16 2
    26   15   17 am
    27   17   18 1
    28   17   31 1
    29   18   23 ar
    30   18   19 ar
    31   19   20 ar
    32   19   32 1
    33   20   21 ar
    34   20   33 1
    35   21   22 ar
    36   21   34 1
    37   22   23 ar
    38   22   35 1
