AVX101140_0, 3
##########                 Name:          AVX101140_0
##########          Protonation:                  100
##########               SMILES:   c1cc2c(cc1Br)C(=O)C(=O)N2Cc3ccc4c(c3C(=O)[O-])OCCO4
##########            Long Name:   mo-2,3-dioxo-indolin-1-yl)methyl]-2,3-dihydro-1,4-benzodioxine-5-carboxylate
##########          FlexRecCode: 1
##########               Number:                  172
##########   Ligand Source File: /raid1/people/rgc/Examples/sampl4/screening/ligands/build_1//sampl4-hivint-00000
##########           GlobalRank: 12
##########                 Rank:                    1
##########               Setnum:                    8
##########             Matchnum:                17686
##########                Cloud:                    1
##########        Electrostatic:           -29.507496
##########        Van der Waals:           -30.021389
##########  Ligand Polar Desolv:            25.990934
########## Ligand Apolar Desolv:            -2.816494
##########      Internal Energy:             0.000000
##########      Receptor Energy: 0.0
########## Receptor Desolvation:             0.000000
########## Receptor Hydrophobic:             0.000000
##########         Total Energy: -36.35
##########        Ligand Charge:            -1.000000
##########            Arbitrary:    +999.9990
##########     heavy atom count:   26
##########           pose count:    1
##########        Ligand Energy:             0.000000
# num electro vdwattr vdwrepu polsolv apolsol rdesolv rhydroe totalscore fullpol fullapo
#   1  -24.03   -5.40    3.31   14.12   -0.18    0.00    0.00     -12.17   26.19   -0.33
#   2   15.73   -2.84    0.95   -7.89   -0.08    0.00    0.00       5.88  -17.35   -0.17
#   3  -17.82   -3.16    1.61   12.44   -0.26    0.00    0.00      -7.18   28.60   -0.59
#   4   -2.55   -1.54    0.33    2.45   -0.16    0.00    0.00      -1.48    6.14   -0.41
#   5    1.49   -1.68    0.42   -0.70   -0.13    0.00    0.00      -0.59   -1.65   -0.30
#   6   -5.52   -1.69    0.41    3.76    0.12    0.00    0.00      -2.92    8.51    0.27
#   7    0.19   -1.15    0.17    0.10   -0.07    0.00    0.00      -0.77    0.20   -0.14
#   8    0.08   -1.16    0.15   -0.12   -0.07    0.00    0.00      -1.12   -0.24   -0.14
#   9   -0.68   -2.70    1.22    2.12    0.34    0.00    0.00       0.30    4.24    0.68
#  10    0.19   -1.94    0.34   -0.30   -0.14    0.00    0.00      -1.84   -0.66   -0.30
#  11   -0.74   -2.11    0.45    0.48   -0.22    0.00    0.00      -2.15    1.01   -0.46
#  12   -1.16   -1.18    0.12    0.77   -0.16    0.00    0.00      -1.61    2.00   -0.42
#  13   -0.91   -0.99    0.09    0.51   -0.14    0.00    0.00      -1.43    1.53   -0.41
#  14    1.62   -0.57    0.04   -1.28   -0.09    0.00    0.00      -0.28   -4.48   -0.33
#  15   -2.67   -0.61    0.02    2.16    0.22    0.00    0.00      -0.88    9.03    0.92
#  16    1.58   -0.77    0.04   -2.60   -0.18    0.00    0.00      -1.93   -8.35   -0.58
#  17   -1.60   -1.15    0.17    4.10    0.16    0.00    0.00       1.68   11.30    0.43
#  18    0.77   -0.95    0.12   -1.78   -0.11    0.00    0.00      -1.95   -5.82   -0.35
#  19   -0.46   -1.62    0.59    2.21    0.16    0.00    0.00       0.88    5.93    0.43
#  20   -0.65   -1.01    0.20    0.60   -0.11    0.00    0.00      -0.97    2.34   -0.44
#  21    0.86   -0.65    0.09   -0.44   -0.15    0.00    0.00      -0.29   -2.17   -0.72
#  22   -0.51   -0.65    0.11    0.25   -0.09    0.00    0.00      -0.88    1.34   -0.45
#  23   -0.02   -0.93    0.28   -0.04   -0.10    0.00    0.00      -0.80   -0.19   -0.46
#  24   -0.17   -1.56    0.63    0.19   -0.08    0.00    0.00      -0.98    0.70   -0.30
#  25    0.00   -5.54    3.97   -0.02   -0.32    0.00    0.00      -1.90   -0.07   -1.10
#  26    0.05   -1.74    0.72   -0.10   -0.14    0.00    0.00      -1.20   -0.34   -0.46
#  27    1.66   -0.59    0.18   -0.92   -0.13    0.00    0.00       0.20   -1.97   -0.28
#  28    1.24   -0.33    0.06   -0.42   -0.10    0.00    0.00       0.46   -1.20   -0.28
#  29   -0.02   -0.38    0.05   -0.38   -0.13    0.00    0.00      -0.86   -0.85   -0.28
#  30    0.10   -0.38    0.12   -0.36   -0.08    0.00    0.00      -0.60   -1.26   -0.28
#  31    0.33   -0.87    0.64   -1.12   -0.13    0.00    0.00      -1.16   -2.34   -0.28
#  32    0.80   -0.24    0.05   -0.56   -0.05    0.00    0.00       0.00   -2.39   -0.21
#  33    0.97   -0.13    0.00   -0.27   -0.02    0.00    0.00       0.55   -2.43   -0.22
#  34    1.38   -0.34    0.07   -0.45   -0.07    0.00    0.00       0.58   -1.51   -0.25
#  35    0.64   -0.09    0.00   -0.14   -0.03    0.00    0.00       0.39   -1.51   -0.27
#  36    0.03   -0.12    0.01   -0.07   -0.03    0.00    0.00      -0.18   -0.65   -0.28
#  37    0.28   -0.78    1.74   -0.30   -0.09    0.00    0.00       0.85   -0.91   -0.28

@<TRIPOS>MOLECULE
      AVX101140_0       100
   37    40     0     0     0



@<TRIPOS>ATOM
      1 O1         14.5992   -45.5520     1.6333 O.co2      1          -0.6868
      2 C1         14.2625   -46.3198     0.7423 C.2        1           0.5238
      3 O2         14.4906   -47.5170     0.8480 O.co2      1          -0.6590
      4 C2         13.5775   -45.8039    -0.4537 C.ar       1          -0.1255
      5 C3         14.3198   -45.4064    -1.5750 C.ar       1           0.0909
      6 O3         15.6738   -45.5016    -1.5543 O.3        1          -0.2561
      7 C4         16.3875   -44.7400    -2.5335 C.3        1           0.0131
      8 C5         15.7185   -44.9942    -3.8895 C.3        1           0.0202
      9 O4         14.3686   -44.5280    -3.7948 O.3        1          -0.3129
     10 C6         13.6624   -44.9198    -2.6990 C.ar       1           0.0245
     11 C7         12.2798   -44.8316    -2.7074 C.ar       1          -0.1102
     12 C8         11.5456   -45.2243    -1.6003 C.ar       1          -0.1302
     13 C9         12.1814   -45.7127    -0.4806 C.ar       1          -0.0716
     14 C10        11.3745   -46.1433     0.7172 C.3        1           0.1736
     15 N1          9.9489   -45.9508     0.4402 N.am       1          -0.5425
     16 C11         9.2726   -44.8190     0.7022 C.2        1           0.4872
     17 O5          9.7288   -43.8092     1.1960 O.2        1          -0.4322
     18 C12         7.8516   -45.0319     0.2722 C.2        1           0.3951
     19 O6          6.9307   -44.2448     0.3436 O.2        1          -0.3741
     20 C13         7.8194   -46.4083    -0.2564 C.ar       1          -0.2442
     21 C14         9.1235   -46.9159    -0.1336 C.ar       1           0.2275
     22 C15         9.3861   -48.2091    -0.5649 C.ar       1          -0.1414
     23 C16         8.3756   -48.9797    -1.1096 C.ar       1          -0.0115
     24 C17         7.0912   -48.4758    -1.2336 C.ar       1          -0.1410
     25 Br1         5.7242   -49.5472    -1.9816 Br         1          -0.0427
     26 C18         6.8059   -47.1948    -0.8028 C.ar       1           0.0241
     27 H1         16.3349   -43.6794    -2.2878 H          1           0.1167
     28 H2         17.4279   -45.0634    -2.5676 H          1           0.0708
     29 H3         16.2454   -44.4465    -4.6708 H          1           0.0729
     30 H4         15.7268   -46.0612    -4.1122 H          1           0.1151
     31 H5         11.7713   -44.4541    -3.5823 H          1           0.1267
     32 H6         10.4682   -45.1513    -1.6171 H          1           0.1120
     33 H7         11.5655   -47.1961     0.9244 H          1           0.1225
     34 H8         11.6606   -45.5451     1.5822 H          1           0.1223
     35 H9         10.3831   -48.6145    -0.4749 H          1           0.1503
     36 H10         8.5900   -49.9846    -1.4424 H          1           0.1474
     37 H11         5.8053   -46.8002    -0.8990 H          1           0.1452
@<TRIPOS>BOND
     1    1    2 1
     2    2    3 2
     3    2    4 1
     4    4   13 ar
     5    4    5 ar
     6    5   10 ar
     7    5    6 1
     8    6    7 1
     9    7    8 1
    10    7   27 1
    11    7   28 1
    12    8    9 1
    13    8   29 1
    14    8   30 1
    15    9   10 1
    16   10   11 ar
    17   11   12 ar
    18   11   31 1
    19   12   13 ar
    20   12   32 1
    21   13   14 1
    22   14   15 1
    23   14   33 1
    24   14   34 1
    25   15   21 1
    26   15   16 am
    27   16   17 2
    28   16   18 1
    29   18   19 2
    30   18   20 1
    31   20   26 ar
    32   20   21 ar
    33   21   22 ar
    34   22   23 ar
    35   22   35 1
    36   23   24 ar
    37   23   36 1
    38   24   25 1
    39   24   26 ar
    40   26   37 1
