AVX17389_0, 3
##########                 Name:           AVX17389_0
##########          Protonation:                  100
##########               SMILES:   c1cc(c2c(c1)OCO2)C(=O)NCC(=O)[O-]
##########            Long Name:   2-(1,3-benzodioxole-4-carbonylamino)acetate
##########          FlexRecCode: 1
##########               Number:                  166
##########   Ligand Source File: /raid1/people/rgc/Examples/sampl4/screening/ligands/build_1//sampl4-hivint-00000
##########           GlobalRank: 81
##########                 Rank:                    1
##########               Setnum:                   12
##########             Matchnum:                20053
##########                Cloud:                    1
##########        Electrostatic:           -30.222656
##########        Van der Waals:           -18.094921
##########  Ligand Polar Desolv:            23.670067
########## Ligand Apolar Desolv:            -1.556636
##########      Internal Energy:             0.000000
##########      Receptor Energy: 0.0
########## Receptor Desolvation:             0.000000
########## Receptor Hydrophobic:             0.000000
##########         Total Energy: -26.2
##########        Ligand Charge:            -1.000000
##########            Arbitrary:    +999.9990
##########     heavy atom count:   16
##########           pose count:    1
##########        Ligand Energy:             0.000000
# num electro vdwattr vdwrepu polsolv apolsol rdesolv rhydroe totalscore fullpol fullapo
#   1  -25.36   -3.34    1.72   11.21   -0.19    0.00    0.00     -15.97   24.09   -0.41
#   2   13.69   -2.61    1.60   -6.57   -0.07    0.00    0.00       6.04  -15.23   -0.17
#   3  -17.17   -2.87    2.13   13.11   -0.20    0.00    0.00      -5.00   27.98   -0.43
#   4    0.72   -0.91    0.13   -1.00   -0.19    0.00    0.00      -1.25   -2.53   -0.47
#   5   -9.06   -1.46    0.29    6.59    0.95    0.00    0.00      -2.69   16.02    2.31
#   6    4.51   -1.31    0.14   -5.14   -0.28    0.00    0.00      -2.07  -12.11   -0.65
#   7   -4.16   -2.07    0.86    6.64   -0.01    0.00    0.00       1.26   15.91   -0.03
#   8   -0.74   -1.48    0.21    1.41   -0.19    0.00    0.00      -0.79    2.99   -0.41
#   9    0.47   -1.06    0.08   -0.27   -0.13    0.00    0.00      -0.90   -0.65   -0.32
#  10   -1.04   -0.62    0.02    1.94    0.11    0.00    0.00       0.42    5.92    0.35
#  11    0.07   -0.71    0.09   -0.63    0.01    0.00    0.00      -1.16   -1.82    0.02
#  12   -0.38   -1.09    0.10    1.42    0.23    0.00    0.00       0.28    3.20    0.52
#  13    0.05   -1.45    0.16   -0.03   -0.17    0.00    0.00      -1.42   -0.05   -0.33
#  14   -0.34   -2.74    1.56    0.09   -0.29    0.00    0.00      -1.71    0.15   -0.47
#  15   -0.50   -3.81    2.15    0.23   -0.28    0.00    0.00      -2.21    0.38   -0.47
#  16   -0.43   -3.22    1.47    0.53   -0.25    0.00    0.00      -1.89    0.94   -0.44
#  17    0.59   -0.38    0.11   -0.53   -0.07    0.00    0.00      -0.28   -1.99   -0.28
#  18    0.81   -0.25    0.05   -0.39   -0.05    0.00    0.00       0.17   -2.03   -0.28
#  19    6.94   -0.05    0.00   -2.85    0.12    0.00    0.00       4.15   -9.02    0.37
#  20   -0.14   -0.15    0.01   -0.18   -0.04    0.00    0.00      -0.50   -1.16   -0.28
#  21   -0.13   -0.45    0.24   -0.32   -0.10    0.00    0.00      -0.75   -0.93   -0.28
#  22    0.52   -0.68    0.39   -0.35   -0.16    0.00    0.00      -0.28   -0.60   -0.28
#  23    0.10   -1.49    2.20   -0.32   -0.18    0.00    0.00       0.32   -0.50   -0.28
#  24    0.74   -1.35    1.71   -0.95   -0.12    0.00    0.00       0.03   -1.73   -0.22

@<TRIPOS>MOLECULE
       AVX17389_0       100
   24    25     0     0     0



@<TRIPOS>ATOM
      1 O1         14.8469   -46.2543     0.5056 O.co2      1          -0.6923
      2 C1         14.7813   -45.7393    -0.5976 C.2        1           0.4913
      3 O2         15.7334   -45.1175    -1.0376 O.co2      1          -0.6870
      4 C2         13.5260   -45.8764    -1.4199 C.3        1           0.0506
      5 N1         12.6203   -44.7654    -1.1172 N.am       1          -0.6918
      6 C3         11.4274   -44.6798    -1.7388 C.2        1           0.5422
      7 O3         11.1030   -45.5248    -2.5507 O.2        1          -0.5423
      8 C4         10.5154   -43.5608    -1.4340 C.ar       1          -0.1102
      9 C5          9.5775   -43.6792    -0.4018 C.ar       1           0.0931
     10 O4          9.3027   -44.6997     0.4575 O.3        1          -0.2807
     11 C6          8.5500   -44.1064     1.5321 C.3        1           0.2068
     12 O5          7.9095   -42.9736     0.9156 O.3        1          -0.3101
     13 C7          8.7220   -42.6168    -0.1222 C.ar       1           0.0153
     14 C8          8.8030   -41.4509    -0.8649 C.ar       1          -0.0815
     15 C9          9.7313   -41.3341    -1.8859 C.ar       1          -0.1182
     16 C10        10.5876   -42.3754    -2.1709 C.ar       1          -0.0756
     17 H1         13.7816   -45.8585    -2.4792 H          1           0.0679
     18 H2         13.0359   -46.8201    -1.1802 H          1           0.0679
     19 H3         12.8791   -44.0912    -0.4696 H          1           0.4071
     20 H4          7.8064   -44.8072     1.9114 H          1           0.1320
     21 H5          9.2151   -43.7818     2.3321 H          1           0.0845
     22 H6          8.1384   -40.6280    -0.6468 H          1           0.1376
     23 H7          9.7868   -40.4208    -2.4596 H          1           0.1449
     24 H8         11.3120   -42.2768    -2.9658 H          1           0.1484
@<TRIPOS>BOND
     1    1    2 1
     2    2    3 2
     3    2    4 1
     4    4    5 1
     5    4   17 1
     6    4   18 1
     7    5    6 am
     8    5   19 1
     9    6    7 2
    10    6    8 1
    11    8   16 ar
    12    8    9 ar
    13    9   13 ar
    14    9   10 1
    15   10   11 1
    16   11   12 1
    17   11   20 1
    18   11   21 1
    19   12   13 1
    20   13   14 ar
    21   14   15 ar
    22   14   22 1
    23   15   16 ar
    24   15   23 1
    25   16   24 1
