AVX101122_1, 3
##########                 Name:          AVX101122_0
##########          Protonation:                   82
##########               SMILES:   C[NH+](Cc1ccccc1C(=O)NCc2ccc(cc2)OC)Cc3cccc(c3C(=O)[O-])OC
##########            Long Name:   4-methoxyphenyl)methylcarbamoyl]phenyl]methyl-methyl-ammonio]methyl]benzoate
##########          FlexRecCode: 1
##########               Number:                   71
##########   Ligand Source File: /raid1/people/rgc/Examples/sampl4/screening/ligands/build_1//sampl4-hivint-00000
##########           GlobalRank: 16
##########                 Rank:                    1
##########               Setnum:                  364
##########             Matchnum:                 6467
##########                Cloud:                    1
##########        Electrostatic:           -26.240021
##########        Van der Waals:           -21.074766
##########  Ligand Polar Desolv:            14.109388
########## Ligand Apolar Desolv:            -2.746583
##########      Internal Energy:             0.000000
##########      Receptor Energy: 0.0
########## Receptor Desolvation:             0.000000
########## Receptor Hydrophobic:             0.000000
##########         Total Energy: -35.95
##########        Ligand Charge:             0.000000
##########            Arbitrary:    +999.9990
##########     heavy atom count:   33
##########           pose count:    1
##########        Ligand Energy:             0.000000
# num electro vdwattr vdwrepu polsolv apolsol rdesolv rhydroe totalscore fullpol fullapo
#   1    0.00   -0.03    0.00    0.00    0.00    0.00    0.00      -0.02    0.03    0.03
#   2   -0.05   -0.11    0.00    0.03    0.05    0.00    0.00      -0.08    0.46    0.93
#   3    0.02   -0.15    0.00    0.00   -0.02    0.00    0.00      -0.15   -0.09   -0.31
#   4   -0.03   -0.39    0.03   -0.06   -0.06    0.00    0.00      -0.50   -0.42   -0.42
#   5    0.00   -0.35    0.02   -0.03   -0.06    0.00    0.00      -0.42   -0.18   -0.45
#   6   -0.01   -0.12    0.00   -0.02   -0.02    0.00    0.00      -0.16   -0.37   -0.37
#   7    0.00   -0.08    0.00    0.02   -0.02    0.00    0.00      -0.07    0.50   -0.44
#   8   -0.04   -0.13    0.00   -0.12    0.11    0.00    0.00      -0.18   -2.62    2.32
#   9    0.10   -0.34    0.02    0.15   -0.08    0.00    0.00      -0.15    1.16   -0.65
#  10   -0.44   -0.61    0.05    0.03    0.07    0.00    0.00      -0.91    0.13    0.32
#  11   -0.02   -0.44    0.04   -0.08   -0.06    0.00    0.00      -0.55   -0.52   -0.41
#  12   -0.01   -0.31    0.02   -0.05   -0.05    0.00    0.00      -0.40   -0.39   -0.44
#  13   -0.06   -0.35    0.03   -0.10   -0.06    0.00    0.00      -0.54   -0.72   -0.47
#  14   -0.18   -1.13    0.55   -0.08   -0.09    0.00    0.00      -0.93   -0.43   -0.47
#  15   -0.63   -1.43    0.69   -0.17   -0.08    0.00    0.00      -1.62   -0.73   -0.34
#  16   -0.16   -0.67    0.09   -0.05   -0.08    0.00    0.00      -0.87   -0.25   -0.39
#  17    0.22   -0.41    0.05    0.06   -0.05    0.00    0.00      -0.13    0.32   -0.26
#  18   -2.22   -0.44    0.02   -0.39    0.03    0.00    0.00      -3.00   -1.99    0.16
#  19    3.20   -0.01    0.00    0.04    0.04    0.00    0.00       3.27    0.29    0.33
#  20   -0.18   -0.31    0.01   -0.13   -0.06    0.00    0.00      -0.67   -0.84   -0.41
#  21    0.42   -0.48    0.02    0.05   -0.08    0.00    0.00      -0.06    0.20   -0.29
#  22   -0.92   -0.89    0.07   -0.01   -0.09    0.00    0.00      -1.83   -0.02   -0.30
#  23   -1.18   -0.99    0.10   -0.25   -0.14    0.00    0.00      -2.45   -0.73   -0.40
#  24   -0.54   -1.70    0.32   -0.12   -0.22    0.00    0.00      -2.26   -0.25   -0.47
#  25   -1.55   -2.23    0.47    0.20   -0.21    0.00    0.00      -3.31    0.40   -0.42
#  26    2.05   -1.93    0.58   -0.44   -0.14    0.00    0.00       0.13   -0.97   -0.31
#  27   -3.30   -2.28    1.28    2.32    0.17    0.00    0.00      -1.80    4.80    0.36
#  28    0.15   -1.12    0.14   -0.03    0.01    0.00    0.00      -0.84   -0.06    0.03
#  29   -2.60   -1.45    0.35    0.94   -0.16    0.00    0.00      -2.92    2.39   -0.40
#  30   13.58   -2.05    0.61   -3.78   -0.06    0.00    0.00       8.31   -9.01   -0.15
#  31  -24.60   -4.21    3.00    5.88   -0.15    0.00    0.00     -20.08   11.77   -0.30
#  32  -15.80   -1.93    0.64    7.71   -0.23    0.00    0.00      -9.61   19.72   -0.59
#  33    0.00   -0.05    0.00    0.00   -0.01    0.00    0.00      -0.06   -0.08   -0.45
#  34   -0.01   -0.05    0.00    0.00   -0.01    0.00    0.00      -0.07    0.11   -0.46
#  35    0.01   -0.01    0.00    0.00    0.00    0.00    0.00       0.00    0.33   -0.26
#  36    0.01   -0.01    0.00    0.00    0.00    0.00    0.00       0.00    0.28   -0.26
#  37    0.01    0.00    0.00    0.00    0.00    0.00    0.00       0.01    0.50   -0.28
#  38    0.03   -0.15    0.02    0.09   -0.03    0.00    0.00      -0.05    0.63   -0.22
#  39    0.01   -0.13    0.02    0.14   -0.04    0.00    0.00      -0.01    0.93   -0.28
#  40    0.01   -0.04    0.00    0.00   -0.01    0.00    0.00      -0.03    0.07   -0.28
#  41   -0.01   -0.01    0.00    0.00    0.00    0.00    0.00      -0.02    0.27   -0.28
#  42    0.00    0.00    0.00    0.04    0.01    0.00    0.00       0.05    2.41    0.44
#  43    0.01   -0.04    0.00    0.04   -0.01    0.00    0.00       0.02    1.32   -0.22
#  44    0.04   -0.03    0.00    0.04   -0.01    0.00    0.00       0.03    1.30   -0.28
#  45    0.25   -0.62    1.44    0.19   -0.05    0.00    0.00       1.21    1.08   -0.28
#  46    0.78   -0.72    0.92    0.21   -0.05    0.00    0.00       1.15    0.82   -0.18
#  47    0.89   -0.27    0.16   -0.02   -0.05    0.00    0.00       0.70   -0.10   -0.26
#  48    0.40   -0.07    0.00    0.10   -0.02    0.00    0.00       0.41    1.36   -0.23
#  49    0.40   -0.19    0.03    0.43   -0.04    0.00    0.00       0.63    2.84   -0.28
#  50    0.12   -0.07    0.00    0.09   -0.01    0.00    0.00       0.13    1.61   -0.18
#  51    0.23   -0.06    0.00    0.06   -0.01    0.00    0.00       0.22    1.36   -0.23
#  52    0.78   -0.12    0.01   -0.04   -0.02    0.00    0.00       0.59   -0.33   -0.20
#  53    1.35   -0.26    0.04    0.49   -0.06    0.00    0.00       1.55    2.18   -0.27
#  54    0.68   -0.16    0.02    0.42   -0.04    0.00    0.00       0.90    2.62   -0.28
#  55    0.71   -0.60    0.53    0.61   -0.11    0.00    0.00       1.14    1.54   -0.28
#  56    0.68   -1.08    1.17    0.01   -0.11    0.00    0.00       0.68    0.03   -0.22
#  57    0.52   -0.29    0.02   -0.08   -0.09    0.00    0.00       0.10   -0.24   -0.26
#  58    0.46   -0.36    0.13   -0.06   -0.07    0.00    0.00       0.10   -0.20   -0.26
#  59    0.18   -0.51    0.14   -0.21   -0.11    0.00    0.00      -0.51   -0.54   -0.28
#  60    0.00    0.00    0.00    0.00    0.00    0.00    0.00      -0.01    0.31   -0.28
#  61    0.01    0.00    0.00    0.00    0.00    0.00    0.00       0.00   -0.11   -0.28

@<TRIPOS>MOLECULE
      AVX101122_0        82
   61    63     0     0     0



@<TRIPOS>ATOM
      1 C1          0.5281   -52.9621     0.3459 C.3        1           0.0255
      2 O1          1.0026   -51.7402    -0.2229 O.3        1          -0.3155
      3 C2          2.1863   -51.2616     0.2428 C.ar       1           0.1398
      4 C3          2.7031   -50.0768    -0.2610 C.ar       1          -0.2113
      5 C4          3.9063   -49.5922     0.2145 C.ar       1          -0.0578
      6 C5          4.5954   -50.2870     1.1912 C.ar       1          -0.1557
      7 C6          5.9079   -49.7563     1.7077 C.3        1           0.1665
      8 N1          7.0043   -50.2929     0.8975 N.am       1          -0.7160
      9 C7          7.4229   -49.6259    -0.1964 C.2        1           0.5585
     10 O2          6.8907   -48.5791    -0.5106 O.2        1          -0.5358
     11 C8          8.5293   -50.1672    -1.0140 C.ar       1          -0.1188
     12 C9          8.4069   -51.4199    -1.6177 C.ar       1          -0.0719
     13 C10         9.4428   -51.9190    -2.3796 C.ar       1          -0.1150
     14 C11        10.6016   -51.1811    -2.5457 C.ar       1          -0.0711
     15 C12        10.7294   -49.9390    -1.9501 C.ar       1          -0.1447
     16 C13         9.6984   -49.4258    -1.1901 C.ar       1          -0.0547
     17 C14         9.8369   -48.0700    -0.5467 C.3        1           0.0509
     18 N2         11.1631   -47.9563     0.0749 N.4        1          -0.3727
     19 H1         11.8759   -48.0683    -0.6303 H          1           0.4296
     20 C15        11.3163   -49.0010     1.0962 C.3        1          -0.0635
     21 C16        11.2981   -46.6348     0.7022 C.3        1           0.0511
     22 C17        11.6319   -45.6103    -0.3515 C.ar       1          -0.0852
     23 C18        10.6223   -44.9365    -1.0027 C.ar       1          -0.1565
     24 C19        10.9228   -43.9931    -1.9721 C.ar       1          -0.0786
     25 C20        12.2364   -43.7176    -2.2964 C.ar       1          -0.2076
     26 C21        13.2666   -44.3860    -1.6521 C.ar       1           0.1660
     27 O3         14.5571   -44.1168    -1.9698 O.3        1          -0.2656
     28 C22        15.1460   -44.8996    -3.0103 C.3        1           0.0183
     29 C23        12.9672   -45.3381    -0.6655 C.ar       1          -0.1587
     30 C24        14.0513   -46.0496     0.0303 C.2        1           0.5202
     31 O4         14.5222   -45.5891     1.0612 O.co2      1          -0.7055
     32 O5         14.4817   -47.1016    -0.4222 O.co2      1          -0.6309
     33 C25         4.0821   -51.4678     1.6952 C.ar       1          -0.0575
     34 C26         2.8767   -51.9539     1.2269 C.ar       1          -0.1531
     35 H2         -0.4232   -53.2312    -0.1131 H          1           0.0571
     36 H3          1.2554   -53.7536     0.1652 H          1           0.0576
     37 H4          0.3901   -52.8338     1.4195 H          1           0.1032
     38 H5          2.1657   -49.5341    -1.0245 H          1           0.1312
     39 H6          4.3093   -48.6699    -0.1774 H          1           0.1271
     40 H7          5.9094   -48.6681     1.6459 H          1           0.0822
     41 H8          6.0401   -50.0615     2.7456 H          1           0.0800
     42 H9          7.4289   -51.1281     1.1481 H          1           0.4030
     43 H10         7.5033   -51.9970    -1.4884 H          1           0.1346
     44 H11         9.3494   -52.8880    -2.8474 H          1           0.1388
     45 H12        11.4100   -51.5767    -3.1427 H          1           0.1390
     46 H13        11.6365   -49.3683    -2.0833 H          1           0.1276
     47 H14         9.7233   -47.2948    -1.3045 H          1           0.1517
     48 H15         9.0669   -47.9491     0.2151 H          1           0.1485
     49 H16        12.3003   -48.9166     1.5575 H          1           0.1176
     50 H17        10.5463   -48.8800     1.8581 H          1           0.1188
     51 H18        11.2161   -49.9815     0.6308 H          1           0.1193
     52 H19        10.3596   -46.3650     1.1867 H          1           0.1686
     53 H20        12.0950   -46.6649     1.4451 H          1           0.1139
     54 H21         9.5915   -45.1447    -0.7568 H          1           0.1244
     55 H22        10.1244   -43.4702    -2.4776 H          1           0.1273
     56 H23        12.4618   -42.9809    -3.0532 H          1           0.1309
     57 H24        16.1776   -44.5828    -3.1639 H          1           0.0525
     58 H25        15.1274   -45.9522    -2.7279 H          1           0.0516
     59 H26        14.5822   -44.7609    -3.9328 H          1           0.1022
     60 H27         4.6220   -52.0084     2.4585 H          1           0.1333
     61 H28         2.4744   -52.8743     1.6236 H          1           0.1349
@<TRIPOS>BOND
     1    1    2 1
     2    1   35 1
     3    1   36 1
     4    1   37 1
     5    2    3 1
     6    3   34 ar
     7    3    4 ar
     8    4    5 ar
     9    4   38 1
    10    5    6 ar
    11    5   39 1
    12    6    7 1
    13    6   33 ar
    14    7    8 1
    15    7   40 1
    16    7   41 1
    17    8    9 am
    18    8   42 1
    19    9   10 2
    20    9   11 1
    21   11   16 ar
    22   11   12 ar
    23   12   13 ar
    24   12   43 1
    25   13   14 ar
    26   13   44 1
    27   14   15 ar
    28   14   45 1
    29   15   16 ar
    30   15   46 1
    31   16   17 1
    32   17   18 1
    33   17   47 1
    34   17   48 1
    35   18   19 1
    36   18   20 1
    37   18   21 1
    38   20   49 1
    39   20   50 1
    40   20   51 1
    41   21   22 1
    42   21   52 1
    43   21   53 1
    44   22   29 ar
    45   22   23 ar
    46   23   24 ar
    47   23   54 1
    48   24   25 ar
    49   24   55 1
    50   25   26 ar
    51   25   56 1
    52   26   27 1
    53   26   29 ar
    54   27   28 1
    55   28   57 1
    56   28   58 1
    57   28   59 1
    58   29   30 1
    59   30   31 1
    60   30   32 2
    61   33   34 ar
    62   33   60 1
    63   34   61 1
