AVX17377_0, 3
##########                 Name:           AVX17377_0
##########          Protonation:                  100
##########               SMILES:   c1ccc2c(c1)CC(=O)N2Cc3ccc4c(c3C(=O)[O-])OCO4
##########            Long Name:   5-[(2-oxoindolin-1-yl)methyl]-1,3-benzodioxole-4-carboxylate
##########          FlexRecCode: 1
##########               Number:                  234
##########   Ligand Source File: /raid1/people/rgc/Examples/sampl4/screening/ligands/build_1//sampl4-hivint-00000
##########           GlobalRank: 50
##########                 Rank:                    1
##########               Setnum:                    9
##########             Matchnum:                 2322
##########                Cloud:                    1
##########        Electrostatic:           -32.316566
##########        Van der Waals:           -21.855850
##########  Ligand Polar Desolv:            27.031689
########## Ligand Apolar Desolv:            -2.717582
##########      Internal Energy:             0.000000
##########      Receptor Energy: 0.0
########## Receptor Desolvation:             0.000000
########## Receptor Hydrophobic:             0.000000
##########         Total Energy: -29.86
##########        Ligand Charge:            -1.000000
##########            Arbitrary:    +999.9990
##########     heavy atom count:   23
##########           pose count:    1
##########        Ligand Energy:             0.000000
# num electro vdwattr vdwrepu polsolv apolsol rdesolv rhydroe totalscore fullpol fullapo
#   1  -28.12   -5.91    5.87   14.38   -0.16    0.00    0.00     -13.93   28.40   -0.32
#   2   14.61   -2.70    0.79   -8.40   -0.08    0.00    0.00       4.22  -18.64   -0.17
#   3  -15.14   -3.65    3.12   13.39   -0.24    0.00    0.00      -2.52   31.08   -0.56
#   4   -2.31   -1.50    0.31    2.54   -0.16    0.00    0.00      -1.12    6.44   -0.41
#   5    1.39   -1.74    0.51   -0.41   -0.14    0.00    0.00      -0.39   -0.98   -0.32
#   6   -5.82   -1.75    0.51    4.12    0.15    0.00    0.00      -2.78    9.15    0.34
#   7    2.50   -1.25    0.21   -1.45    0.01    0.00    0.00       0.02   -2.92    0.02
#   8   -1.52   -1.85    0.37    2.34    0.25    0.00    0.00      -0.41    4.79    0.52
#   9    0.02   -1.88    0.31   -0.17   -0.15    0.00    0.00      -1.86   -0.38   -0.33
#  10   -0.65   -2.31    0.63    0.28   -0.22    0.00    0.00      -2.28    0.59   -0.47
#  11   -1.07   -1.28    0.17    0.68   -0.16    0.00    0.00      -1.66    1.75   -0.42
#  12   -0.70   -0.94    0.07    0.52   -0.13    0.00    0.00      -1.18    1.60   -0.41
#  13    1.44   -0.49    0.03   -1.39   -0.09    0.00    0.00      -0.50   -5.13   -0.32
#  14   -2.66   -0.61    0.03    2.37    0.21    0.00    0.00      -0.66   10.25    0.91
#  15    1.77   -0.74    0.04   -2.61   -0.19    0.00    0.00      -1.74   -8.06   -0.59
#  16   -1.76   -0.84    0.05    4.81    0.16    0.00    0.00       2.41   12.76    0.42
#  17   -0.27   -0.90    0.21    0.16   -0.10    0.00    0.00      -0.90    0.50   -0.30
#  18   -0.50   -1.63    0.88    0.30   -0.13    0.00    0.00      -1.07    1.01   -0.43
#  19   -0.19   -2.90    2.32    0.04   -0.16    0.00    0.00      -0.90    0.11   -0.47
#  20   -0.08   -2.57    2.66    0.10   -0.13    0.00    0.00      -0.01    0.37   -0.47
#  21   -0.12   -1.15    0.48    0.16   -0.10    0.00    0.00      -0.73    0.74   -0.47
#  22   -0.50   -0.77    0.18    0.51   -0.09    0.00    0.00      -0.67    2.49   -0.45
#  23    0.64   -0.88    0.29   -0.21   -0.15    0.00    0.00      -0.33   -0.97   -0.70
#  24    1.52   -0.73    0.37   -1.12   -0.14    0.00    0.00      -0.10   -2.31   -0.28
#  25    0.93   -0.28    0.03   -0.54   -0.09    0.00    0.00       0.05   -1.69   -0.28
#  26    0.23   -1.08    1.44   -1.19   -0.14    0.00    0.00      -0.74   -2.43   -0.28
#  27    0.88   -0.31    0.13   -0.75   -0.06    0.00    0.00      -0.11   -2.74   -0.21
#  28    0.82   -0.11    0.00   -0.19   -0.02    0.00    0.00       0.50   -2.01   -0.22
#  29    1.06   -0.26    0.04   -0.32   -0.06    0.00    0.00       0.46   -1.23   -0.25
#  30    0.17   -0.28    0.14   -0.20   -0.06    0.00    0.00      -0.23   -0.98   -0.28
#  31    0.21   -0.51    0.16   -0.34   -0.11    0.00    0.00      -0.58   -0.89   -0.28
#  32    0.31   -0.84    0.69   -0.04   -0.11    0.00    0.00       0.01   -0.10   -0.28
#  33   -0.02   -0.53    0.50   -0.06   -0.07    0.00    0.00      -0.18   -0.22   -0.28
#  34    0.04   -0.12    0.02   -0.13   -0.03    0.00    0.00      -0.23   -1.04   -0.28
#  35    0.55   -0.10    0.01   -0.14   -0.03    0.00    0.00       0.29   -1.36   -0.27

@<TRIPOS>MOLECULE
       AVX17377_0       100
   35    38     0     0     0



@<TRIPOS>ATOM
      1 O1         15.2176   -46.2438     1.0632 O.co2      1          -0.6814
      2 C1         14.0051   -46.2280     0.9015 C.2        1           0.5222
      3 O2         13.2622   -46.5730     1.8103 O.co2      1          -0.6669
      4 C2         13.4399   -45.7883    -0.3842 C.ar       1          -0.1169
      5 C3         14.2861   -45.3980    -1.4291 C.ar       1           0.0796
      6 O3         15.6392   -45.3270    -1.5349 O.3        1          -0.2761
      7 C4         15.9178   -44.4509    -2.6373 C.3        1           0.2050
      8 O4         14.7710   -44.6637    -3.4741 O.3        1          -0.3173
      9 C5         13.7397   -44.9833    -2.6421 C.ar       1           0.0027
     10 C6         12.3668   -44.9594    -2.8093 C.ar       1          -0.0989
     11 C7         11.5287   -45.3457    -1.7754 C.ar       1          -0.1229
     12 C8         12.0529   -45.7631    -0.5723 C.ar       1          -0.0587
     13 C9         11.1332   -46.1871     0.5439 C.3        1           0.1724
     14 N1          9.7417   -46.0714     0.1007 N.am       1          -0.5493
     15 C10         9.0007   -44.9595     0.2421 C.2        1           0.5197
     16 O5          9.3581   -43.9141     0.7425 O.2        1          -0.4955
     17 C11         7.6353   -45.2570    -0.3403 C.3        1          -0.1133
     18 C12         7.7429   -46.6872    -0.8170 C.ar       1          -0.1511
     19 C13         6.8530   -47.5387    -1.4324 C.ar       1          -0.0686
     20 C14         7.2425   -48.8261    -1.7585 C.ar       1          -0.1498
     21 C15         8.5252   -49.2520    -1.4648 C.ar       1          -0.0840
     22 C16         9.4185   -48.4010    -0.8480 C.ar       1          -0.1346
     23 C17         9.0358   -47.1012    -0.5222 C.ar       1           0.1577
     24 H1         15.9730   -43.4135    -2.3072 H          1           0.1248
     25 H2         16.8341   -44.7461    -3.1486 H          1           0.0764
     26 H3         11.9458   -44.6377    -3.7504 H          1           0.1265
     27 H4         10.4581   -45.3229    -1.9154 H          1           0.1217
     28 H5         11.3436   -47.2218     0.8146 H          1           0.1149
     29 H6         11.2933   -45.5451     1.4101 H          1           0.1169
     30 H7          6.8652   -45.1667     0.4257 H          1           0.1196
     31 H8          7.4235   -44.5908    -1.1766 H          1           0.1190
     32 H9          5.8522   -47.2026    -1.6597 H          1           0.1247
     33 H10         6.5466   -49.4964    -2.2410 H          1           0.1250
     34 H11         8.8289   -50.2566    -1.7194 H          1           0.1276
     35 H12        10.4182   -48.7412    -0.6215 H          1           0.1288
@<TRIPOS>BOND
     1    1    2 1
     2    2    3 2
     3    2    4 1
     4    4   12 ar
     5    4    5 ar
     6    5    9 ar
     7    5    6 1
     8    6    7 1
     9    7    8 1
    10    7   24 1
    11    7   25 1
    12    8    9 1
    13    9   10 ar
    14   10   11 ar
    15   10   26 1
    16   11   12 ar
    17   11   27 1
    18   12   13 1
    19   13   14 1
    20   13   28 1
    21   13   29 1
    22   14   23 1
    23   14   15 am
    24   15   16 2
    25   15   17 1
    26   17   18 1
    27   17   30 1
    28   17   31 1
    29   18   23 ar
    30   18   19 ar
    31   19   20 ar
    32   19   32 1
    33   20   21 ar
    34   20   33 1
    35   21   22 ar
    36   21   34 1
    37   22   23 ar
    38   22   35 1
