AVX17631_0, 3
##########                 Name:           AVX17631_0
##########          Protonation:                  100
##########               SMILES:   c1ccc2c(c1)c(no2)N
##########            Long Name:   1,2-benzoxazol-3-amine
##########          FlexRecCode: 1
##########               Number:                  499
##########   Ligand Source File: /raid1/people/rgc/Examples/sampl4/screening/ligands/build_1//sampl4-hivint-00000
##########           GlobalRank: 113
##########                 Rank:                    1
##########               Setnum:                    1
##########             Matchnum:                20358
##########                Cloud:                    1
##########        Electrostatic:            -9.610378
##########        Van der Waals:           -14.187000
##########  Ligand Polar Desolv:             3.379816
########## Ligand Apolar Desolv:            -1.315106
##########      Internal Energy:             0.000000
##########      Receptor Energy: 0.0
########## Receptor Desolvation:             0.000000
########## Receptor Hydrophobic:             0.000000
##########         Total Energy: -21.73
##########        Ligand Charge:             0.000000
##########            Arbitrary:    +999.9990
##########     heavy atom count:   10
##########           pose count:    1
##########        Ligand Energy:             0.000000
# num electro vdwattr vdwrepu polsolv apolsol rdesolv rhydroe totalscore fullpol fullapo
#   1   -7.13   -1.59    0.36   -0.48    0.30    0.00    0.00      -8.54   -1.45    0.90
#   2    6.68   -1.86    0.46   -0.57   -0.95    0.00    0.00       3.77   -1.43   -2.39
#   3  -10.03   -4.27    2.64    1.75    0.61    0.00    0.00      -9.29    3.67    1.28
#   4   -3.39   -3.60    2.03    0.70   -0.04    0.00    0.00      -4.29    1.45   -0.08
#   5    2.61   -2.56    1.98   -0.10   -0.15    0.00    0.00       1.79   -0.24   -0.35
#   6   -2.19   -1.82    0.53    0.12   -0.21    0.00    0.00      -3.57    0.27   -0.48
#   7   -0.43   -1.96    0.36   -0.05   -0.21    0.00    0.00      -2.29   -0.11   -0.47
#   8   -1.12   -2.04    0.42   -0.24   -0.22    0.00    0.00      -3.19   -0.51   -0.47
#   9   -0.40   -1.15    0.10   -0.03   -0.18    0.00    0.00      -1.65   -0.07   -0.47
#  10   -3.60   -1.37    0.27    0.27   -0.17    0.00    0.00      -4.60    0.71   -0.44
#  11    2.47   -0.01    0.00    0.40    0.10    0.00    0.00       2.95    2.52    0.60
#  12    2.36   -0.05    0.00    0.39    0.19    0.00    0.00       2.89    1.26    0.60
#  13    2.63   -0.32    0.05   -0.02   -0.10    0.00    0.00       2.24   -0.06   -0.28
#  14    0.36   -0.49    0.13    0.44   -0.11    0.00    0.00       0.33    1.16   -0.28
#  15    0.48   -0.79    0.52    0.59   -0.13    0.00    0.00       0.67    1.30   -0.28
#  16    1.07   -0.18    0.01    0.20   -0.05    0.00    0.00       1.06    1.05   -0.28

@<TRIPOS>MOLECULE
       AVX17631_0       100
   16    17     0     0     0



@<TRIPOS>ATOM
      1 N1         11.3988   -46.0177     1.6444 N.pl3      1          -0.8162
      2 C1         12.6472   -45.8845     1.0533 C.2        1           0.3772
      3 N2         13.8017   -46.0266     1.6433 N.2        1          -0.3595
      4 O1         14.8413   -45.8133     0.7098 O.3        1          -0.0920
      5 C2         14.3108   -45.5298    -0.4974 C.ar       1           0.1013
      6 C3         14.8654   -45.2427    -1.7391 C.ar       1          -0.1316
      7 C4         14.0420   -44.9886    -2.8147 C.ar       1          -0.0556
      8 C5         12.6625   -45.0163    -2.6694 C.ar       1          -0.1547
      9 C6         12.0986   -45.2964    -1.4561 C.ar       1          -0.0383
     10 C7         12.9151   -45.5630    -0.3568 C.ar       1          -0.2113
     11 H1         10.5957   -45.8975     1.1139 H          1           0.4171
     12 H2         11.3293   -46.2348     2.5873 H          1           0.4155
     13 H3         15.9382   -45.2183    -1.8606 H          1           0.1411
     14 H4         14.4744   -44.7655    -3.7789 H          1           0.1412
     15 H5         12.0296   -44.8149    -3.5211 H          1           0.1355
     16 H6         11.0240   -45.3157    -1.3499 H          1           0.1303
@<TRIPOS>BOND
     1    1    2 1
     2    1   11 1
     3    1   12 1
     4    2   10 1
     5    2    3 2
     6    3    4 1
     7    4    5 1
     8    5   10 ar
     9    5    6 ar
    10    6    7 ar
    11    6   13 1
    12    7    8 ar
    13    7   14 1
    14    8    9 ar
    15    8   15 1
    16    9   10 ar
    17    9   16 1
