AVX17557_3, 3
##########                 Name:           AVX17557_0
##########          Protonation:                  100
##########               SMILES:   c1ccc2c(c1)C[C@@H]([C@H]2Cc3ccc4c(c3C(=O)[O-])OCO4)NC(=O)CCCCC[NH3+]
##########            Long Name:   -(6-azaniumylhexanoylamino)indan-1-yl]methyl]-1,3-benzodioxole-4-carboxylate
##########          FlexRecCode: 1
##########               Number:                  696
##########   Ligand Source File: /raid1/people/rgc/Examples/sampl4/screening/ligands/build_1//sampl4-hivint-00000
##########           GlobalRank: 118
##########                 Rank:                    1
##########               Setnum:                    9
##########             Matchnum:                 6150
##########                Cloud:                    1
##########        Electrostatic:           -23.531139
##########        Van der Waals:           -24.803068
##########  Ligand Polar Desolv:            29.020857
########## Ligand Apolar Desolv:            -1.560810
##########      Internal Energy:             0.000000
##########      Receptor Energy: 0.0
########## Receptor Desolvation:             0.000000
########## Receptor Hydrophobic:             0.000000
##########         Total Energy: -20.87
##########        Ligand Charge:             0.000000
##########            Arbitrary:    +999.9990
##########     heavy atom count:   31
##########           pose count:    1
##########        Ligand Energy:             0.000000
# num electro vdwattr vdwrepu polsolv apolsol rdesolv rhydroe totalscore fullpol fullapo
#   1   -0.18   -1.30    0.80   -4.97    0.22    0.00    0.00      -5.44  -19.22    0.86
#   2   -0.28   -0.06    0.00    5.17    0.20    0.00    0.00       5.03   15.90    0.60
#   3   -0.04   -0.02    0.00    2.76    0.11    0.00    0.00       2.81   14.44    0.58
#   4    1.52   -0.01    0.00    2.72    0.11    0.00    0.00       4.33   14.90    0.58
#   5    0.01   -0.54    0.18    0.15   -0.09    0.00    0.00      -0.30    0.81   -0.49
#   6   -0.02   -0.18    0.01   -0.29   -0.02    0.00    0.00      -0.50   -2.84   -0.24
#   7   -0.14   -0.33    0.05   -0.18   -0.03    0.00    0.00      -0.63   -1.33   -0.22
#   8   -0.03   -0.15    0.01   -0.04   -0.02    0.00    0.00      -0.23   -0.36   -0.19
#   9   -0.17   -0.42    0.07    0.00   -0.04    0.00    0.00      -0.57   -0.01   -0.24
#  10    1.37   -0.99    0.28   -0.80   -0.15    0.00    0.00      -0.29   -3.62   -0.66
#  11   -3.51   -2.38    2.07    2.10    0.11    0.00    0.00      -1.61    6.98    0.37
#  12   -0.99   -0.42    0.03    0.94    0.30    0.00    0.00      -0.14    6.30    2.05
#  13    0.38   -0.31    0.02   -0.27   -0.05    0.00    0.00      -0.22   -1.66   -0.30
#  14   -0.08   -0.23    0.01    0.05   -0.04    0.00    0.00      -0.29    0.34   -0.27
#  15    0.00   -0.32    0.02    0.04   -0.05    0.00    0.00      -0.31    0.40   -0.43
#  16    0.05   -0.30    0.02    0.01   -0.04    0.00    0.00      -0.27    0.08   -0.47
#  17    0.06   -0.48    0.05    0.00   -0.06    0.00    0.00      -0.44   -0.01   -0.47
#  18    0.05   -0.90    0.15    0.07   -0.10    0.00    0.00      -0.72    0.36   -0.47
#  19    0.01   -1.01    0.18    0.20   -0.08    0.00    0.00      -0.70    0.96   -0.40
#  20   -0.02   -0.51    0.04    0.14   -0.05    0.00    0.00      -0.41    0.93   -0.35
#  21   -0.18   -0.27    0.01    0.09   -0.02    0.00    0.00      -0.38    0.60   -0.15
#  22   -0.32   -0.46    0.03    0.22   -0.05    0.00    0.00      -0.58    0.90   -0.19
#  23   -0.57   -0.75    0.04    0.27   -0.09    0.00    0.00      -1.10    0.97   -0.32
#  24   -0.83   -1.25    0.36    0.21   -0.13    0.00    0.00      -1.63    0.64   -0.38
#  25   -0.89   -2.27    0.81    0.24   -0.20    0.00    0.00      -2.31    0.56   -0.47
#  26    0.16   -2.28    0.91   -0.12   -0.14    0.00    0.00      -1.47   -0.29   -0.33
#  27   -1.27   -2.94    1.49    1.62    0.23    0.00    0.00      -0.87    3.65    0.52
#  28    1.89   -1.12    0.24   -0.99    0.01    0.00    0.00       0.02   -2.21    0.02
#  29   -5.36   -1.57    0.42    2.98    0.18    0.00    0.00      -3.35    7.77    0.48
#  30    0.63   -1.43    0.27    0.13   -0.13    0.00    0.00      -0.53    0.34   -0.33
#  31   -1.30   -1.03    0.08    1.51   -0.14    0.00    0.00      -0.88    4.23   -0.40
#  32   11.31   -2.04    0.53   -6.75   -0.04    0.00    0.00       3.01  -16.68   -0.11
#  33  -19.14   -4.33    2.64   13.55   -0.21    0.00    0.00      -7.49   27.46   -0.42
#  34  -10.88   -2.17    0.87    9.19   -0.14    0.00    0.00      -3.13   24.74   -0.39
#  35   -0.02   -0.13    0.02    0.50   -0.04    0.00    0.00       0.32    3.90   -0.28
#  36   -0.28   -0.33    0.36    0.43   -0.04    0.00    0.00       0.15    3.29   -0.28
#  37    0.01   -0.03    0.00    0.02   -0.01    0.00    0.00       0.00    1.22   -0.28
#  38    0.00   -0.03    0.00    0.05   -0.01    0.00    0.00       0.00    1.80   -0.28
#  39    0.18   -0.10    0.01    0.11   -0.02    0.00    0.00       0.17    1.33   -0.28
#  40    0.08   -0.32    0.27    0.11   -0.04    0.00    0.00       0.09    0.72   -0.28
#  41    0.02   -0.03    0.00    0.00   -0.01    0.00    0.00      -0.02   -0.16   -0.28
#  42    0.01   -0.02    0.00    0.00   -0.01    0.00    0.00      -0.02    0.12   -0.28
#  43    0.35   -0.19    0.04    0.13   -0.05    0.00    0.00       0.26    0.68   -0.28
#  44    0.01   -0.10    0.02    0.00   -0.02    0.00    0.00      -0.10   -0.02   -0.28
#  45    0.12    0.00    0.00   -0.10    0.02    0.00    0.00       0.03   -3.02    0.58
#  46    0.43   -0.18    0.05   -0.13   -0.04    0.00    0.00       0.13   -0.83   -0.25
#  47    0.08   -0.09    0.01   -0.04   -0.03    0.00    0.00      -0.07   -0.46   -0.28
#  48    0.04   -0.06    0.00   -0.02   -0.01    0.00    0.00      -0.05   -0.39   -0.28
#  49   -0.04   -0.03    0.00    0.01   -0.01    0.00    0.00      -0.07    0.24   -0.28
#  50   -0.06   -0.06    0.00    0.02   -0.02    0.00    0.00      -0.12    0.42   -0.28
#  51   -0.05   -0.19    0.02   -0.04   -0.05    0.00    0.00      -0.31   -0.21   -0.28
#  52    0.02   -0.36    0.13   -0.18   -0.06    0.00    0.00      -0.44   -0.78   -0.27
#  53    0.43   -0.07    0.00   -0.02   -0.01    0.00    0.00       0.33   -0.42   -0.23
#  54    0.32   -0.12    0.00   -0.02   -0.03    0.00    0.00       0.16   -0.17   -0.25
#  55    0.48   -0.28    0.05   -0.35   -0.07    0.00    0.00      -0.17   -1.44   -0.28
#  56    0.79   -0.33    0.22   -0.27   -0.07    0.00    0.00       0.35   -1.13   -0.28
#  57    0.78   -0.86    0.55   -0.48   -0.14    0.00    0.00      -0.15   -0.97   -0.28
#  58    0.72   -0.30    0.08   -0.31   -0.07    0.00    0.00       0.12   -1.32   -0.28
#  59    0.85   -0.32    0.04   -0.37   -0.10    0.00    0.00       0.10   -1.06   -0.28

@<TRIPOS>MOLECULE
       AVX17557_0       100
   59    62     0     0     0



@<TRIPOS>ATOM
      1 N1         13.6430   -50.5754     0.4912 N.4        1          -0.6384
      2 H1         14.6055   -50.2863     0.5811 H          1           0.4364
      3 H2         13.2003   -50.5574     1.3976 H          1           0.4357
      4 H3         13.1597   -49.9460    -0.1320 H          1           0.4346
      5 C1         13.5902   -51.9390    -0.0527 C.3        1          -0.0099
      6 C2         12.1307   -52.3774    -0.1892 C.3        1          -0.1525
      7 C3         11.3977   -51.4228    -1.1340 C.3        1          -0.1194
      8 C4          9.9383   -51.8613    -1.2705 C.3        1          -0.1043
      9 C5          9.2052   -50.9066    -2.2151 C.3        1          -0.1438
     10 C6          9.2594   -49.5078    -1.6572 C.2        1           0.5137
     11 O1          9.7834   -48.6199    -2.2961 O.2        1          -0.5468
     12 N2          8.7255   -49.2433    -0.4482 N.am       1          -0.7103
     13 C7          8.7781   -47.8834     0.0941 C.3        1           0.1501
     14 C8          7.6175   -47.6415     1.0823 C.3        1          -0.0874
     15 C9          8.1730   -48.0055     2.4425 C.ar       1          -0.0985
     16 C10         7.5216   -48.2861     3.6321 C.ar       1          -0.1119
     17 C11         8.2473   -48.5981     4.7649 C.ar       1          -0.1229
     18 C12         9.6284   -48.6305     4.7123 C.ar       1          -0.1210
     19 C13        10.2798   -48.3510     3.5270 C.ar       1          -0.0894
     20 C14         9.5538   -48.0380     2.3900 C.ar       1          -0.0781
     21 C15        10.0206   -47.6979     0.9907 C.3        1          -0.0588
     22 C16        10.5070   -46.2486     0.9309 C.3        1          -0.0569
     23 C17        11.3554   -46.0538    -0.2992 C.ar       1          -0.0607
     24 C18        10.7725   -45.6590    -1.4828 C.ar       1          -0.1065
     25 C19        11.5452   -45.4772    -2.6182 C.ar       1          -0.1161
     26 C20        12.9127   -45.6904    -2.5768 C.ar       1           0.0197
     27 O2         13.8749   -45.5817    -3.5395 O.3        1          -0.3157
     28 C21        15.1249   -45.5225    -2.8271 C.3        1           0.2110
     29 O3         14.8546   -46.2315    -1.6034 O.3        1          -0.2995
     30 C22        13.5178   -46.0899    -1.3878 C.ar       1           0.0451
     31 C23        12.7369   -46.2685    -0.2380 C.ar       1          -0.0867
     32 C24        13.3656   -46.6850     1.0259 C.2        1           0.5370
     33 O4         13.7732   -45.8420     1.8132 O.co2      1          -0.6783
     34 O5         13.4806   -47.8742     1.2891 O.co2      1          -0.6814
     35 H4         14.0686   -51.9585    -1.0319 H          1           0.1328
     36 H5         14.1124   -52.6190     0.6204 H          1           0.1340
     37 H6         12.0915   -53.3892    -0.5928 H          1           0.0897
     38 H7         11.6524   -52.3581     0.7899 H          1           0.0879
     39 H8         11.4369   -50.4110    -0.7304 H          1           0.0739
     40 H9         11.8761   -51.4422    -2.1132 H          1           0.0765
     41 H10         9.8991   -52.8731    -1.6740 H          1           0.0761
     42 H11         9.4600   -51.8418    -0.2912 H          1           0.0728
     43 H12         9.6836   -50.9260    -3.1944 H          1           0.0923
     44 H13         8.1656   -51.2190    -2.3124 H          1           0.0977
     45 H14         8.3065   -49.9533     0.0626 H          1           0.4028
     46 H15         8.7667   -47.1469    -0.7095 H          1           0.1080
     47 H16         7.3175   -46.5938     1.0643 H          1           0.0893
     48 H17         6.7709   -48.2824     0.8356 H          1           0.0738
     49 H18         6.4427   -48.2606     3.6740 H          1           0.1141
     50 H19         7.7364   -48.8161     5.6911 H          1           0.1190
     51 H20        10.1975   -48.8739     5.5974 H          1           0.1205
     52 H21        11.3586   -48.3765     3.4867 H          1           0.1200
     53 H22        10.8150   -48.3773     0.6815 H          1           0.1105
     54 H23         9.6482   -45.5786     0.8898 H          1           0.0903
     55 H24        11.0986   -46.0268     1.8192 H          1           0.0722
     56 H25         9.7066   -45.4905    -1.5262 H          1           0.1283
     57 H26        11.0781   -45.1677    -3.5414 H          1           0.1266
     58 H27        15.9121   -46.0208    -3.3928 H          1           0.1256
     59 H28        15.3980   -44.4882    -2.6182 H          1           0.0775
@<TRIPOS>BOND
     1    1    2 1
     2    1    3 1
     3    1    4 1
     4    1    5 1
     5    5    6 1
     6    5   35 1
     7    5   36 1
     8    6    7 1
     9    6   37 1
    10    6   38 1
    11    7    8 1
    12    7   39 1
    13    7   40 1
    14    8    9 1
    15    8   41 1
    16    8   42 1
    17    9   10 1
    18    9   43 1
    19    9   44 1
    20   10   11 2
    21   10   12 am
    22   12   13 1
    23   12   45 1
    24   13   21 1
    25   13   14 1
    26   13   46 1
    27   14   15 1
    28   14   47 1
    29   14   48 1
    30   15   20 ar
    31   15   16 ar
    32   16   17 ar
    33   16   49 1
    34   17   18 ar
    35   17   50 1
    36   18   19 ar
    37   18   51 1
    38   19   20 ar
    39   19   52 1
    40   20   21 1
    41   21   22 1
    42   21   53 1
    43   22   23 1
    44   22   54 1
    45   22   55 1
    46   23   31 ar
    47   23   24 ar
    48   24   25 ar
    49   24   56 1
    50   25   26 ar
    51   25   57 1
    52   26   30 ar
    53   26   27 1
    54   27   28 1
    55   28   29 1
    56   28   58 1
    57   28   59 1
    58   29   30 1
    59   30   31 ar
    60   31   32 1
    61   32   33 1
    62   32   34 2
