AVX17558_3, 3
##########                 Name:           AVX17558_0
##########          Protonation:                  100
##########               SMILES:   c1ccc2c(c1)C[C@H]([C@@H]2Cc3ccc4c(c3C(=O)[O-])OCO4)NC(=O)CCC[NH3+]
##########            Long Name:   -(4-azaniumylbutanoylamino)indan-1-yl]methyl]-1,3-benzodioxole-4-carboxylate
##########          FlexRecCode: 1
##########               Number:                   72
##########   Ligand Source File: /raid1/people/rgc/Examples/sampl4/screening/ligands/build_1//sampl4-hivint-00000
##########           GlobalRank: 89
##########                 Rank:                    1
##########               Setnum:                    2
##########             Matchnum:                 7729
##########                Cloud:                    1
##########        Electrostatic:           -23.601021
##########        Van der Waals:           -20.990000
##########  Ligand Polar Desolv:            21.086578
########## Ligand Apolar Desolv:            -1.844055
##########      Internal Energy:             0.000000
##########      Receptor Energy: 0.0
########## Receptor Desolvation:             0.000000
########## Receptor Hydrophobic:             0.000000
##########         Total Energy: -25.35
##########        Ligand Charge:             0.000000
##########            Arbitrary:    +999.9990
##########     heavy atom count:   29
##########           pose count:    1
##########        Ligand Energy:             0.000000
# num electro vdwattr vdwrepu polsolv apolsol rdesolv rhydroe totalscore fullpol fullapo
#   1   -0.67   -0.57    0.09   -3.52    0.16    0.00    0.00      -4.51  -19.39    0.86
#   2   -0.05   -0.01    0.00    2.07    0.08    0.00    0.00       2.08   14.97    0.58
#   3    0.97   -0.01    0.00    0.88    0.03    0.00    0.00       1.88   14.73    0.58
#   4    0.99   -0.02    0.00    3.04    0.11    0.00    0.00       4.12   16.16    0.60
#   5    0.00   -0.26    0.03    0.10   -0.06    0.00    0.00      -0.20    0.78   -0.49
#   6    0.01   -0.09    0.00   -0.12   -0.01    0.00    0.00      -0.20   -2.39   -0.20
#   7    0.04   -0.09    0.00   -0.08   -0.01    0.00    0.00      -0.15   -1.53   -0.24
#   8   -0.10   -0.31    0.01    0.16   -0.07    0.00    0.00      -0.31    1.49   -0.66
#   9    0.11   -0.72    0.11   -0.08    0.06    0.00    0.00      -0.52   -0.47    0.37
#  10    0.03   -0.24    0.01    0.12    0.18    0.00    0.00       0.09    1.32    1.96
#  11   -0.01   -0.41    0.03   -0.16   -0.04    0.00    0.00      -0.58   -0.90   -0.23
#  12    0.04   -0.45    0.09    0.04   -0.04    0.00    0.00      -0.33    0.24   -0.27
#  13    0.00   -0.36    0.02    0.09   -0.05    0.00    0.00      -0.29    0.76   -0.43
#  14    0.01   -0.30    0.01    0.06   -0.06    0.00    0.00      -0.28    0.49   -0.47
#  15   -0.06   -0.76    0.32    0.11   -0.08    0.00    0.00      -0.48    0.64   -0.47
#  16   -0.21   -1.15    0.44    0.32   -0.12    0.00    0.00      -0.72    1.27   -0.47
#  17   -0.22   -0.64    0.07    0.41   -0.09    0.00    0.00      -0.47    1.97   -0.45
#  18   -0.10   -0.38    0.01    0.20   -0.06    0.00    0.00      -0.32    1.43   -0.39
#  19   -0.07   -0.37    0.02    0.04   -0.02    0.00    0.00      -0.40    0.25   -0.13
#  20   -0.31   -1.09    0.34    0.26   -0.05    0.00    0.00      -0.85    0.86   -0.17
#  21   -0.29   -1.06    0.14    0.08   -0.10    0.00    0.00      -1.22    0.25   -0.31
#  22   -0.94   -0.92    0.11    0.14   -0.14    0.00    0.00      -1.75    0.44   -0.45
#  23   -0.84   -1.21    0.16   -0.03   -0.20    0.00    0.00      -2.12   -0.07   -0.47
#  24   -0.08   -1.46    0.20   -0.08   -0.15    0.00    0.00      -1.57   -0.18   -0.33
#  25   -2.08   -2.10    0.51    0.47    0.26    0.00    0.00      -2.94    0.94    0.52
#  26    1.40   -1.38    0.27   -0.33    0.01    0.00    0.00      -0.03   -0.71    0.02
#  27   -4.34   -1.32    0.23    2.31    0.14    0.00    0.00      -2.98    5.48    0.34
#  28    1.18   -1.45    0.32   -0.18   -0.13    0.00    0.00      -0.26   -0.45   -0.32
#  29   -1.96   -1.26    0.17    1.27   -0.15    0.00    0.00      -1.92    3.51   -0.41
#  30   11.27   -2.10    0.55   -5.48   -0.07    0.00    0.00       4.18  -13.36   -0.16
#  31  -20.93   -5.62    5.56   10.33   -0.14    0.00    0.00     -10.80   20.69   -0.29
#  32  -10.02   -1.44    0.25    9.13   -0.20    0.00    0.00      -2.28   25.03   -0.56
#  33    0.04   -0.06    0.00    0.19   -0.01    0.00    0.00       0.15    3.53   -0.28
#  34   -0.10   -0.16    0.05    0.38   -0.03    0.00    0.00       0.15    4.06   -0.28
#  35    0.01   -0.02    0.00    0.03   -0.01    0.00    0.00       0.02    1.59   -0.28
#  36   -0.01   -0.01    0.00    0.02    0.00    0.00    0.00      -0.01    1.33   -0.28
#  37   -0.02   -0.01    0.00    0.01    0.00    0.00    0.00      -0.02    1.03   -0.28
#  38   -0.04   -0.03    0.00    0.05   -0.01    0.00    0.00      -0.02    1.72   -0.28
#  39    0.06    0.00    0.00   -0.03    0.01    0.00    0.00       0.04   -1.42    0.57
#  40    0.00   -0.27    0.05   -0.10   -0.05    0.00    0.00      -0.36   -0.47   -0.25
#  41   -0.03   -0.06    0.00   -0.01   -0.02    0.00    0.00      -0.12   -0.25   -0.28
#  42   -0.06   -0.55    0.71   -0.03   -0.05    0.00    0.00       0.02   -0.14   -0.28
#  43   -0.03   -0.04    0.00    0.00   -0.01    0.00    0.00      -0.08   -0.12   -0.28
#  44    0.02   -0.28    0.30   -0.05   -0.04    0.00    0.00      -0.05   -0.29   -0.28
#  45    0.33   -0.57    0.49   -0.34   -0.09    0.00    0.00      -0.18   -1.05   -0.28
#  46    0.57   -0.21    0.08   -0.22   -0.04    0.00    0.00       0.17   -1.38   -0.27
#  47    0.41   -0.07    0.00   -0.03   -0.01    0.00    0.00       0.30   -0.57   -0.22
#  48   -0.08   -0.61    0.76   -0.19   -0.06    0.00    0.00      -0.18   -0.69   -0.20
#  49    0.39   -0.81    0.79   -0.30   -0.09    0.00    0.00      -0.02   -0.91   -0.27
#  50    0.52   -0.14    0.00   -0.04   -0.04    0.00    0.00       0.31   -0.29   -0.28
#  51    0.74   -0.28    0.03    0.22   -0.08    0.00    0.00       0.63    0.73   -0.28
#  52    0.53   -0.76    0.43   -0.06   -0.11    0.00    0.00       0.05   -0.15   -0.28
#  53    0.38   -0.43    0.10    0.02   -0.10    0.00    0.00      -0.02    0.06   -0.28

@<TRIPOS>MOLECULE
       AVX17558_0       100
   53    56     0     0     0



@<TRIPOS>ATOM
      1 N1         12.3970   -50.4271     1.1031 N.4        1          -0.6365
      2 H1         12.3048   -50.3259     2.1027 H          1           0.4351
      3 H2         11.6561   -49.9191     0.6437 H          1           0.4363
      4 H3         13.2895   -50.0596     0.8087 H          1           0.4368
      5 C1         12.3110   -51.8492     0.7446 C.3        1          -0.0108
      6 C2         10.9579   -52.4066     1.1909 C.3        1          -0.1345
      7 C3         10.8179   -52.2533     2.7067 C.3        1          -0.1442
      8 C4         10.9062   -50.7945     3.0744 C.2        1           0.5178
      9 O1         11.7817   -50.4089     3.8201 O.2        1          -0.5471
     10 N2         10.0125   -49.9182     2.5748 N.am       1          -0.7039
     11 C5         10.0983   -48.5001     2.9324 C.3        1           0.1454
     12 C6          8.7810   -48.0017     3.5361 C.3        1          -0.0861
     13 C7          7.9359   -47.6196     2.3465 C.ar       1          -0.1082
     14 C8          6.5656   -47.4766     2.2115 C.ar       1          -0.1114
     15 C9          6.0231   -47.1113     0.9948 C.ar       1          -0.1255
     16 C10         6.8497   -46.8876    -0.0906 C.ar       1          -0.1206
     17 C11         8.2173   -47.0296     0.0431 C.ar       1          -0.0879
     18 C12         8.7623   -47.3960     1.2619 C.ar       1          -0.0663
     19 C13        10.1936   -47.6195     1.6817 C.3        1          -0.0339
     20 C14        10.8651   -46.2865     2.0179 C.3        1          -0.0677
     21 C15        11.3386   -45.6282     0.7478 C.ar       1          -0.0295
     22 C16        10.5067   -44.7678     0.0665 C.ar       1          -0.1289
     23 C17        10.9336   -44.1578    -1.1024 C.ar       1          -0.1047
     24 C18        12.2010   -44.4063    -1.5977 C.ar       1          -0.0083
     25 O2         12.8607   -43.9510    -2.7001 O.3        1          -0.3207
     26 C19        13.9339   -44.8734    -2.9419 C.3        1           0.2058
     27 O3         14.2220   -45.3375    -1.6144 O.3        1          -0.2748
     28 C20        13.0553   -45.2739    -0.9203 C.ar       1           0.0752
     29 C21        12.6263   -45.8867     0.2633 C.ar       1          -0.1199
     30 C22        13.5216   -46.8008     0.9906 C.2        1           0.5175
     31 O4         14.2692   -46.3652     1.8556 O.co2      1          -0.6672
     32 O5         13.5182   -47.9961     0.7303 O.co2      1          -0.6698
     33 H4         12.4108   -51.9585    -0.3352 H          1           0.1353
     34 H5         13.1116   -52.3979     1.2408 H          1           0.1345
     35 H6         10.1574   -51.8578     0.6948 H          1           0.0949
     36 H7         10.8940   -53.4618     0.9250 H          1           0.0967
     37 H8          9.8539   -52.6504     3.0246 H          1           0.1039
     38 H9         11.6185   -52.8019     3.2028 H          1           0.1025
     39 H10         9.3124   -50.2264     1.9783 H          1           0.4047
     40 H11        10.9348   -48.3169     3.6067 H          1           0.1037
     41 H12         8.2988   -48.7968     4.1047 H          1           0.0781
     42 H13         8.9583   -47.1334     4.1706 H          1           0.0741
     43 H14         5.9194   -47.6513     3.0589 H          1           0.1138
     44 H15         4.9537   -47.0010     0.8914 H          1           0.1195
     45 H16         6.4267   -46.6023    -1.0424 H          1           0.1221
     46 H17         8.8627   -46.8551    -0.8049 H          1           0.1314
     47 H18        10.7441   -48.1354     0.8950 H          1           0.1086
     48 H19        10.1490   -45.6354     2.5196 H          1           0.1223
     49 H20        11.7167   -46.4641     2.6746 H          1           0.0530
     50 H21         9.5153   -44.5673     0.4453 H          1           0.1254
     51 H22        10.2732   -43.4852    -1.6296 H          1           0.1195
     52 H23        13.6066   -45.6943    -3.5799 H          1           0.1239
     53 H24        14.7960   -44.3648    -3.3733 H          1           0.0704
@<TRIPOS>BOND
     1    1    2 1
     2    1    3 1
     3    1    4 1
     4    1    5 1
     5    5    6 1
     6    5   33 1
     7    5   34 1
     8    6    7 1
     9    6   35 1
    10    6   36 1
    11    7    8 1
    12    7   37 1
    13    7   38 1
    14    8    9 2
    15    8   10 am
    16   10   11 1
    17   10   39 1
    18   11   19 1
    19   11   12 1
    20   11   40 1
    21   12   13 1
    22   12   41 1
    23   12   42 1
    24   13   18 ar
    25   13   14 ar
    26   14   15 ar
    27   14   43 1
    28   15   16 ar
    29   15   44 1
    30   16   17 ar
    31   16   45 1
    32   17   18 ar
    33   17   46 1
    34   18   19 1
    35   19   20 1
    36   19   47 1
    37   20   21 1
    38   20   48 1
    39   20   49 1
    40   21   29 ar
    41   21   22 ar
    42   22   23 ar
    43   22   50 1
    44   23   24 ar
    45   23   51 1
    46   24   28 ar
    47   24   25 1
    48   25   26 1
    49   26   27 1
    50   26   52 1
    51   26   53 1
    52   27   28 1
    53   28   29 ar
    54   29   30 1
    55   30   31 1
    56   30   32 2
