AVX17286_0, 3
##########                 Name:           AVX17286_0
##########          Protonation:                  100
##########               SMILES:   c1ccc2c(c1)/C(=C/c3ccc4c(c3C(=O)[O-])OCO4)/C(=[NH+]2)[O-]
##########            Long Name:   5-[(Z)-(2-oxidoindol-1-ium-3-ylidene)methyl]-1,3-benzodioxole-4-carboxylate
##########          FlexRecCode: 1
##########               Number:                  674
##########   Ligand Source File: /raid1/people/rgc/Examples/sampl4/screening/ligands/build_1//sampl4-hivint-00000
##########           GlobalRank: 58
##########                 Rank:                    1
##########               Setnum:                    4
##########             Matchnum:                 2403
##########                Cloud:                    1
##########        Electrostatic:           -33.397675
##########        Van der Waals:           -19.296362
##########  Ligand Polar Desolv:            25.449743
########## Ligand Apolar Desolv:            -1.461112
##########      Internal Energy:             0.000000
##########      Receptor Energy: 0.0
########## Receptor Desolvation:             0.000000
########## Receptor Hydrophobic:             0.000000
##########         Total Energy: -28.71
##########        Ligand Charge:            -1.000000
##########            Arbitrary:    +999.9990
##########     heavy atom count:   23
##########           pose count:    1
##########        Ligand Energy:             0.000000
# num electro vdwattr vdwrepu polsolv apolsol rdesolv rhydroe totalscore fullpol fullapo
#   1  -27.99   -5.73    5.39   13.68   -0.17    0.00    0.00     -14.83   27.08   -0.33
#   2   14.56   -2.65    0.76   -8.35   -0.08    0.00    0.00       4.24  -18.57   -0.17
#   3  -14.84   -3.45    2.69   13.26   -0.24    0.00    0.00      -2.58   30.91   -0.55
#   4   -1.72   -1.50    0.31    2.36   -0.16    0.00    0.00      -0.70    5.99   -0.41
#   5    0.97   -1.73    0.50   -0.22   -0.14    0.00    0.00      -0.62   -0.51   -0.32
#   6   -5.73   -1.73    0.49    4.20    0.15    0.00    0.00      -2.63    9.32    0.33
#   7    2.47   -1.26    0.21   -1.58    0.01    0.00    0.00      -0.15   -3.18    0.02
#   8   -1.45   -1.88    0.39    2.57    0.24    0.00    0.00      -0.13    5.26    0.50
#   9    0.25   -1.91    0.32   -0.33   -0.15    0.00    0.00      -1.80   -0.73   -0.33
#  10   -0.72   -2.42    0.72    0.59   -0.22    0.00    0.00      -2.06    1.24   -0.47
#  11   -0.31   -1.34    0.20    0.20   -0.13    0.00    0.00      -1.38    0.52   -0.32
#  12   -0.93   -0.94    0.07    0.54   -0.12    0.00    0.00      -1.38    1.65   -0.37
#  13    1.22   -0.74    0.04   -0.34   -0.10    0.00    0.00       0.08   -1.27   -0.37
#  14   -1.08   -0.50    0.02    0.66   -0.08    0.00    0.00      -0.98    3.51   -0.42
#  15    2.59   -0.78    0.14   -1.95   -0.15    0.00    0.00      -0.14   -9.09   -0.69
#  16   -4.41   -2.03    1.51    4.20    0.38    0.00    0.00      -0.34   14.25    1.29
#  17   -1.49   -0.52    0.05    1.16    0.29    0.00    0.00      -0.51    6.59    1.67
#  18    0.58   -0.01    0.00   -0.42    0.07    0.00    0.00       0.22   -3.68    0.60
#  19    0.15   -0.28    0.01   -0.10   -0.08    0.00    0.00      -0.30   -0.92   -0.77
#  20   -0.04   -0.17    0.00    0.03   -0.03    0.00    0.00      -0.21    0.43   -0.48
#  21    0.00   -0.15    0.00    0.01   -0.03    0.00    0.00      -0.16    0.14   -0.47
#  22    0.04   -0.33    0.02    0.08   -0.05    0.00    0.00      -0.23    0.78   -0.47
#  23    0.00   -0.61    0.11    0.19   -0.07    0.00    0.00      -0.38    1.25   -0.48
#  24   -0.13   -0.37    0.01    0.34   -0.06    0.00    0.00      -0.21    2.49   -0.44
#  25    1.52   -0.74    0.37   -1.23   -0.14    0.00    0.00      -0.21   -2.53   -0.28
#  26    0.93   -0.28    0.03   -0.55   -0.09    0.00    0.00       0.03   -1.72   -0.28
#  27    0.18   -1.21    2.01   -1.42   -0.14    0.00    0.00      -0.58   -2.87   -0.28
#  28    0.95   -0.34    0.15   -0.88   -0.07    0.00    0.00      -0.18   -3.11   -0.23
#  29    1.41   -0.23    0.03   -0.87   -0.05    0.00    0.00       0.28   -3.66   -0.22
#  30    0.01   -0.02    0.00   -0.01   -0.01    0.00    0.00      -0.03   -0.42   -0.28
#  31   -0.01   -0.02    0.00    0.00   -0.01    0.00    0.00      -0.03   -0.09   -0.28
#  32   -0.08   -0.08    0.01   -0.06   -0.02    0.00    0.00      -0.23   -0.80   -0.28
#  33   -0.26   -0.42    0.48   -0.30   -0.05    0.00    0.00      -0.56   -1.67   -0.28

@<TRIPOS>MOLECULE
       AVX17286_0       100
   33    36     0     0     0



@<TRIPOS>ATOM
      1 O1         15.2089   -46.2272     1.0321 O.co2      1          -0.6792
      2 C1         13.9970   -46.2145     0.8642 C.2        1           0.5223
      3 O2         13.2504   -46.5604     1.7697 O.co2      1          -0.6603
      4 C2         13.4374   -45.7777    -0.4241 C.ar       1          -0.0877
      5 C3         14.2829   -45.3876    -1.4621 C.ar       1           0.0561
      6 O3         15.6362   -45.3133    -1.5605 O.3        1          -0.2761
      7 C4         15.9177   -44.4371    -2.6621 C.3        1           0.2048
      8 O4         14.7779   -44.6535    -3.5073 O.3        1          -0.3156
      9 C5         13.7416   -44.9734    -2.6845 C.ar       1           0.0316
     10 C6         12.3679   -44.9495    -2.8676 C.ar       1          -0.1143
     11 C7         11.5174   -45.3330    -1.8498 C.ar       1          -0.0366
     12 C8         12.0347   -45.7552    -0.6227 C.ar       1          -0.0790
     13 C9         11.1321   -46.1672     0.4540 C.2        1           0.1453
     14 C10        10.2719   -47.2253     0.2642 C.2        1          -0.2175
     15 C11        10.2207   -48.1567    -0.8767 C.2        1           0.5071
     16 O5         11.0325   -48.1282    -1.9612 O.3        1          -0.5732
     17 N1          9.2574   -49.0158    -0.6636 N.pl3      1          -0.5927
     18 H1          9.0292   -49.7309    -1.2781 H          1           0.4149
     19 C12         8.6111   -48.7987     0.5114 C.ar       1           0.1111
     20 C13         7.5430   -49.4583     1.1288 C.ar       1          -0.1329
     21 C14         7.0737   -49.0191     2.3475 C.ar       1          -0.1000
     22 C15         7.6474   -47.9252     2.9770 C.ar       1          -0.1356
     23 C16         8.7033   -47.2583     2.3870 C.ar       1          -0.0684
     24 C17         9.1922   -47.6908     1.1621 C.ar       1          -0.0716
     25 H2         15.9670   -43.3995    -2.3321 H          1           0.1255
     26 H3         16.8385   -44.7290    -3.1671 H          1           0.0765
     27 H4         11.9594   -44.6280    -3.8142 H          1           0.1293
     28 H5         10.4488   -45.3104    -2.0042 H          1           0.1325
     29 H6         11.1412   -45.6410     1.3971 H          1           0.1729
     30 H7          7.0860   -50.3116     0.6499 H          1           0.1236
     31 H8          6.2486   -49.5330     2.8182 H          1           0.1264
     32 H9          7.2672   -47.5932     3.9318 H          1           0.1272
     33 H10         9.1490   -46.4061     2.8784 H          1           0.1334
@<TRIPOS>BOND
     1    1    2 1
     2    2    3 2
     3    2    4 1
     4    4   12 ar
     5    4    5 ar
     6    5    9 ar
     7    5    6 1
     8    6    7 1
     9    7    8 1
    10    7   25 1
    11    7   26 1
    12    8    9 1
    13    9   10 ar
    14   10   11 ar
    15   10   27 1
    16   11   12 ar
    17   11   28 1
    18   12   13 1
    19   13   14 2
    20   13   29 1
    21   14   24 1
    22   14   15 1
    23   15   16 1
    24   15   17 2
    25   17   18 1
    26   17   19 1
    27   19   24 ar
    28   19   20 ar
    29   20   21 ar
    30   20   30 1
    31   21   22 ar
    32   21   31 1
    33   22   23 ar
    34   22   32 1
    35   23   24 ar
    36   23   33 1
