AVX17560_0, 3
##########                 Name:           AVX17560_0
##########          Protonation:                  100
##########               SMILES:   CC(C)C[C@@H](Cc1ccc2c(c1C(=O)[O-])OCO2)CNC(=O)CCC[NH3+]
##########            Long Name:   aniumylbutanoylamino)methyl]-4-methyl-pentyl]-1,3-benzodioxole-4-carboxylate
##########          FlexRecCode: 1
##########               Number:                  508
##########   Ligand Source File: /raid1/people/rgc/Examples/sampl4/screening/ligands/build_1//sampl4-hivint-00000
##########           GlobalRank: 137
##########                 Rank:                    1
##########               Setnum:                    1
##########             Matchnum:                18596
##########                Cloud:                    1
##########        Electrostatic:           -10.914884
##########        Van der Waals:           -18.344416
##########  Ligand Polar Desolv:            19.323023
########## Ligand Apolar Desolv:            -2.004190
##########      Internal Energy:             0.000000
##########      Receptor Energy: 0.0
########## Receptor Desolvation:             0.000000
########## Receptor Hydrophobic:             0.000000
##########         Total Energy: -11.94
##########        Ligand Charge:             0.000000
##########            Arbitrary:    +999.9990
##########     heavy atom count:   26
##########           pose count:    1
##########        Ligand Energy:             0.000000
# num electro vdwattr vdwrepu polsolv apolsol rdesolv rhydroe totalscore fullpol fullapo
#   1    0.28   -1.53    0.57    0.71   -0.08    0.00    0.00      -0.05    1.51   -0.17
#   2    0.39   -1.45    0.72    0.32   -0.06    0.00    0.00      -0.08    0.85   -0.15
#   3    0.47   -1.65    0.90    0.23   -0.07    0.00    0.00      -0.12    0.63   -0.18
#   4    0.24   -0.69    0.20    0.08   -0.04    0.00    0.00      -0.21    0.32   -0.17
#   5    0.00   -0.53    0.04    0.14   -0.03    0.00    0.00      -0.37    0.49   -0.09
#   6    0.20   -0.40    0.02   -0.13   -0.08    0.00    0.00      -0.38   -0.57   -0.37
#   7   -0.94   -0.42    0.02   -0.06    0.33    0.00    0.00      -1.08   -0.42    2.18
#   8    0.85   -0.29    0.01    0.18   -0.07    0.00    0.00       0.68    1.67   -0.66
#   9   -1.04   -0.41    0.03    0.10    0.06    0.00    0.00      -1.27    0.63    0.38
#  10   -0.12   -0.15    0.00   -0.13   -0.02    0.00    0.00      -0.41   -1.71   -0.24
#  11   -0.16   -0.15    0.00   -0.19   -0.01    0.00    0.00      -0.51   -2.57   -0.20
#  12   -0.04   -0.35    0.03    0.16   -0.08    0.00    0.00      -0.28    0.95   -0.49
#  13   -3.71   -0.62    0.06   -4.71    0.21    0.00    0.00      -8.78  -19.69    0.86
#  14    2.35   -0.01    0.00    1.70    0.07    0.00    0.00       4.10   14.60    0.58
#  15    1.55   -0.02    0.00    2.53    0.10    0.00    0.00       4.16   14.94    0.58
#  16    4.33   -0.01    0.00    3.13    0.11    0.00    0.00       7.56   16.41    0.60
#  17   -0.04   -1.01    0.36    0.31   -0.06    0.00    0.00      -0.44    0.92   -0.17
#  18   -0.22   -1.13    0.24    0.13   -0.10    0.00    0.00      -1.09    0.37   -0.30
#  19   -0.69   -1.23    0.12    0.35   -0.18    0.00    0.00      -1.63    0.75   -0.39
#  20   -0.61   -1.91    0.39    0.24   -0.24    0.00    0.00      -2.13    0.46   -0.47
#  21   -0.02   -1.90    0.34    0.10   -0.17    0.00    0.00      -1.65    0.20   -0.33
#  22   -1.50   -3.41    1.78    2.01    0.28    0.00    0.00      -0.84    3.68    0.52
#  23    1.05   -1.79    0.65   -1.06    0.01    0.00    0.00      -1.14   -2.17    0.02
#  24   -3.31   -1.14    0.11    3.15    0.14    0.00    0.00      -1.04    7.42    0.34
#  25    0.80   -1.36    0.29   -0.11   -0.13    0.00    0.00      -0.52   -0.27   -0.32
#  26   -1.23   -1.28    0.46    1.45   -0.14    0.00    0.00      -0.74    4.40   -0.41
#  27    6.31   -1.41    0.28   -4.76   -0.05    0.00    0.00       0.37  -13.74   -0.15
#  28  -12.54   -3.70    2.74    7.95   -0.10    0.00    0.00      -5.64   17.40   -0.21
#  29   -5.43   -0.67    0.03    6.97   -0.15    0.00    0.00       0.75   26.58   -0.56
#  30   -0.04   -0.37    0.07    0.01   -0.10    0.00    0.00      -0.43    0.02   -0.28
#  31   -0.13   -0.33    0.05   -0.07   -0.06    0.00    0.00      -0.55   -0.20   -0.16
#  32   -0.06   -1.44    4.27   -0.32   -0.14    0.00    0.00       2.32   -0.65   -0.28
#  33   -0.66   -1.16    2.44   -0.09   -0.09    0.00    0.00       0.45   -0.21   -0.20
#  34   -0.06   -0.74    0.66   -0.06   -0.08    0.00    0.00      -0.28   -0.20   -0.28
#  35   -0.25   -1.24    2.15   -0.11   -0.12    0.00    0.00       0.44   -0.25   -0.28
#  36   -0.10   -0.17    0.01   -0.04   -0.06    0.00    0.00      -0.35   -0.17   -0.28
#  37   -0.18   -0.34    0.33   -0.03   -0.04    0.00    0.00      -0.27   -0.22   -0.28
#  38   -0.04   -0.11    0.01   -0.01   -0.02    0.00    0.00      -0.18   -0.08   -0.24
#  39    0.06   -0.19    0.01   -0.05   -0.03    0.00    0.00      -0.20   -0.28   -0.19
#  40    0.10   -0.15    0.03   -0.02   -0.03    0.00    0.00      -0.07   -0.14   -0.22
#  41    0.22   -0.15    0.01   -0.03   -0.05    0.00    0.00       0.01   -0.20   -0.28
#  42    0.06   -0.01    0.00    0.11    0.06    0.00    0.00       0.22    0.96    0.51
#  43    0.04   -0.07    0.00    0.15   -0.02    0.00    0.00       0.10    2.38   -0.28
#  44    0.01   -0.02    0.00    0.04   -0.01    0.00    0.00       0.02    1.75   -0.28
#  45    0.04   -0.04    0.00    0.03   -0.01    0.00    0.00       0.02    0.96   -0.28
#  46    0.05   -0.03    0.00    0.04   -0.01    0.00    0.00       0.05    1.35   -0.28
#  47    0.39   -0.17    0.03    0.59   -0.04    0.00    0.00       0.81    4.49   -0.28
#  48    0.67   -0.12    0.01    0.50   -0.04    0.00    0.00       1.02    3.97   -0.28
#  49   -0.12   -0.52    0.32   -0.39   -0.05    0.00    0.00      -0.76   -1.03   -0.14
#  50   -0.05   -0.53    0.61   -0.23   -0.08    0.00    0.00      -0.28   -0.79   -0.28
#  51    0.43   -0.25    0.02   -0.17   -0.08    0.00    0.00      -0.05   -0.61   -0.28
#  52    0.58   -0.67    0.30   -0.35   -0.14    0.00    0.00      -0.28   -0.73   -0.28
#  53    0.63   -0.90    0.63   -0.58   -0.13    0.00    0.00      -0.34   -1.29   -0.28
#  54    0.25   -0.56    0.21   -0.38   -0.11    0.00    0.00      -0.59   -0.98   -0.28

@<TRIPOS>MOLECULE
       AVX17560_0       100
   54    55     0     0     0



@<TRIPOS>ATOM
      1 C1          6.3968   -42.8135     2.9207 C.3        1          -0.1367
      2 C2          7.1776   -43.8908     3.6763 C.3        1          -0.0911
      3 C3          6.4733   -44.1975     4.9995 C.3        1          -0.1464
      4 C4          7.2444   -45.1620     2.8275 C.3        1          -0.0979
      5 C5          7.9486   -44.8553     1.5043 C.3        1          -0.0830
      6 C6          8.0154   -46.1265     0.6555 C.3        1           0.1146
      7 N1          8.7629   -47.1580     1.3789 N.am       1          -0.7143
      8 C7          8.9501   -48.3706     0.8211 C.2        1           0.5056
      9 O1          8.4999   -48.6077    -0.2797 O.2        1          -0.5485
     10 C8          9.7192   -49.4317     1.5652 C.3        1          -0.1422
     11 C9         10.4245   -50.3477     0.5632 C.3        1          -0.1368
     12 C10        11.3896   -49.5226    -0.2905 C.3        1          -0.0097
     13 N2         12.3887   -48.8851     0.5776 N.4        1          -0.6369
     14 H1         11.9236   -48.2810     1.2384 H          1           0.4363
     15 H2         12.9036   -49.5956     1.0759 H          1           0.4358
     16 H3         13.0251   -48.3410     0.0146 H          1           0.4370
     17 C11         9.3668   -44.3546     1.7854 C.3        1          -0.0759
     18 C12        10.0604   -44.0525     0.4821 C.ar       1          -0.0391
     19 C13         9.5410   -43.1041    -0.3708 C.ar       1          -0.1369
     20 C14        10.1721   -42.8197    -1.5715 C.ar       1          -0.1032
     21 C15        11.3316   -43.4852    -1.9263 C.ar       1          -0.0033
     22 O2         12.1379   -43.4028    -3.0222 O.3        1          -0.3187
     23 C16        12.9063   -44.6150    -3.0538 C.3        1           0.2053
     24 O3         12.9951   -44.9387    -1.6581 O.3        1          -0.2770
     25 C17        11.8705   -44.4471    -1.0744 C.ar       1           0.0757
     26 C18        11.2360   -44.7315     0.1408 C.ar       1          -0.1233
     27 C19        11.7987   -45.7416     1.0514 C.2        1           0.5203
     28 O4         12.6055   -45.4103     1.9092 O.co2      1          -0.6611
     29 O5         11.4594   -46.9128     0.9505 O.co2      1          -0.6714
     30 H4          6.8987   -42.5951     1.9781 H          1           0.0444
     31 H5          5.3866   -43.1702     2.7204 H          1           0.0852
     32 H6          6.3492   -41.9078     3.5253 H          1           0.0236
     33 H7          8.1880   -43.5341     3.8767 H          1           0.0916
     34 H8          7.0295   -44.9649     5.5379 H          1           0.0423
     35 H9          6.4256   -43.2919     5.6041 H          1           0.0460
     36 H10         5.4631   -44.5542     4.7991 H          1           0.0509
     37 H11         7.8006   -45.9295     3.3659 H          1           0.0544
     38 H12         6.2341   -45.5186     2.6273 H          1           0.0465
     39 H13         7.3924   -44.0878     0.9662 H          1           0.0942
     40 H14         7.0050   -46.4832     0.4553 H          1           0.0743
     41 H15         8.5171   -45.9081    -0.2872 H          1           0.0651
     42 H16         9.1230   -46.9684     2.2595 H          1           0.4028
     43 H17        10.4606   -48.9586     2.2093 H          1           0.1030
     44 H18         9.0318   -50.0194     2.1734 H          1           0.1038
     45 H19        10.9807   -51.1152     1.1014 H          1           0.0958
     46 H20         9.6832   -50.8207    -0.0810 H          1           0.0954
     47 H21        11.8920   -50.1752    -1.0045 H          1           0.1345
     48 H22        10.8334   -48.7550    -0.8288 H          1           0.1349
     49 H23         9.3193   -43.4490     2.3902 H          1           0.1361
     50 H24         9.9230   -45.1221     2.3236 H          1           0.0494
     51 H25         8.6361   -42.5792    -0.1026 H          1           0.1267
     52 H26         9.7562   -42.0746    -2.2336 H          1           0.1235
     53 H27        12.3808   -45.3962    -3.6029 H          1           0.1247
     54 H28        13.8952   -44.4392    -3.4773 H          1           0.0736
@<TRIPOS>BOND
     1    1    2 1
     2    1   30 1
     3    1   31 1
     4    1   32 1
     5    2    3 1
     6    2    4 1
     7    2   33 1
     8    3   34 1
     9    3   35 1
    10    3   36 1
    11    4    5 1
    12    4   37 1
    13    4   38 1
    14    5    6 1
    15    5   17 1
    16    5   39 1
    17    6    7 1
    18    6   40 1
    19    6   41 1
    20    7    8 am
    21    7   42 1
    22    8    9 2
    23    8   10 1
    24   10   11 1
    25   10   43 1
    26   10   44 1
    27   11   12 1
    28   11   45 1
    29   11   46 1
    30   12   13 1
    31   12   47 1
    32   12   48 1
    33   13   14 1
    34   13   15 1
    35   13   16 1
    36   17   18 1
    37   17   49 1
    38   17   50 1
    39   18   26 ar
    40   18   19 ar
    41   19   20 ar
    42   19   51 1
    43   20   21 ar
    44   20   52 1
    45   21   25 ar
    46   21   22 1
    47   22   23 1
    48   23   24 1
    49   23   53 1
    50   23   54 1
    51   24   25 1
    52   25   26 ar
    53   26   27 1
    54   27   28 1
    55   27   29 2
