AVX17542_0, 3
##########                 Name:           AVX17542_0
##########          Protonation:                  100
##########               SMILES:   CC(C)C[C@H](Cc1ccc2c(c1C(=O)[O-])OCO2)CNC(=O)CCCC[NH3+]
##########            Long Name:   niumylpentanoylamino)methyl]-4-methyl-pentyl]-1,3-benzodioxole-4-carboxylate
##########          FlexRecCode: 1
##########               Number:                  446
##########   Ligand Source File: /raid1/people/rgc/Examples/sampl4/screening/ligands/build_1//sampl4-hivint-00000
##########           GlobalRank: 105
##########                 Rank:                    1
##########               Setnum:                    4
##########             Matchnum:                 7067
##########                Cloud:                    1
##########        Electrostatic:           -19.487644
##########        Van der Waals:           -24.150433
##########  Ligand Polar Desolv:            22.678692
########## Ligand Apolar Desolv:            -2.008054
##########      Internal Energy:             0.000000
##########      Receptor Energy: 0.0
########## Receptor Desolvation:             0.000000
########## Receptor Hydrophobic:             0.000000
##########         Total Energy: -22.97
##########        Ligand Charge:             0.000000
##########            Arbitrary:    +999.9990
##########     heavy atom count:   27
##########           pose count:    1
##########        Ligand Energy:             0.000000
# num electro vdwattr vdwrepu polsolv apolsol rdesolv rhydroe totalscore fullpol fullapo
#   1   -0.08   -1.41    0.77    0.03   -0.07    0.00    0.00      -0.76    0.08   -0.18
#   2   -0.12   -0.53    0.04    0.19   -0.05    0.00    0.00      -0.47    0.65   -0.18
#   3   -0.17   -0.81    0.09    0.53   -0.07    0.00    0.00      -0.43    1.34   -0.19
#   4   -0.41   -0.46    0.03    0.08   -0.05    0.00    0.00      -0.81    0.28   -0.18
#   5   -0.63   -0.37    0.01    0.27   -0.03    0.00    0.00      -0.75    1.22   -0.12
#   6    0.23   -0.30    0.01   -0.23   -0.06    0.00    0.00      -0.34   -1.52   -0.38
#   7   -0.68   -0.52    0.03    0.69    0.36    0.00    0.00      -0.13    4.09    2.14
#   8    0.06   -0.28    0.01   -0.19   -0.07    0.00    0.00      -0.47   -1.91   -0.66
#   9   -0.06   -0.12    0.00    0.27    0.02    0.00    0.00       0.11    5.82    0.38
#  10    0.03   -0.26    0.02   -0.09   -0.03    0.00    0.00      -0.33   -0.71   -0.24
#  11    0.02   -0.53    0.12   -0.17   -0.03    0.00    0.00      -0.59   -1.04   -0.19
#  12   -0.08   -0.20    0.01   -0.32   -0.03    0.00    0.00      -0.61   -2.71   -0.24
#  13    0.00   -0.39    0.05    0.11   -0.09    0.00    0.00      -0.33    0.59   -0.49
#  14   -0.32   -0.74    0.44   -2.77    0.12    0.00    0.00      -3.28  -19.33    0.86
#  15    0.14    0.00    0.00    0.72    0.03    0.00    0.00       0.89   15.10    0.58
#  16    0.52   -0.02    0.00    2.20    0.08    0.00    0.00       2.79   15.55    0.58
#  17    0.18   -0.03    0.00    2.20    0.08    0.00    0.00       2.44   15.85    0.60
#  18   -0.46   -0.46    0.04    0.21   -0.04    0.00    0.00      -0.71    0.92   -0.18
#  19   -0.54   -1.06    0.14    0.20   -0.07    0.00    0.00      -1.34    0.66   -0.23
#  20   -0.96   -1.66    0.36    0.17   -0.15    0.00    0.00      -2.23    0.43   -0.36
#  21   -0.75   -2.21    0.52    0.25   -0.22    0.00    0.00      -2.42    0.52   -0.47
#  22    0.18   -1.78    0.30   -0.06   -0.15    0.00    0.00      -1.52   -0.13   -0.33
#  23   -3.05   -2.07    0.59    1.84    0.26    0.00    0.00      -2.44    3.67    0.52
#  24    3.42   -1.22    0.22   -1.06    0.01    0.00    0.00       1.37   -2.23    0.02
#  25   -8.07   -2.42    1.28    3.53    0.22    0.00    0.00      -5.46    7.73    0.48
#  26    0.92   -1.73    0.48    0.19   -0.14    0.00    0.00      -0.28    0.45   -0.33
#  27   -1.44   -1.21    0.14    1.36   -0.15    0.00    0.00      -1.30    3.68   -0.40
#  28   10.42   -1.62    0.29   -6.14   -0.05    0.00    0.00       2.90  -15.83   -0.12
#  29  -15.74   -3.15    1.86   11.67   -0.18    0.00    0.00      -5.53   27.40   -0.42
#  30   -9.72   -1.61    0.33    7.98   -0.13    0.00    0.00      -3.15   22.61   -0.36
#  31    0.04   -0.68    0.76   -0.02   -0.10    0.00    0.00      -0.01   -0.06   -0.28
#  32    0.25   -0.38    0.17    0.01   -0.10    0.00    0.00      -0.06    0.02   -0.28
#  33   -0.16   -0.78    0.91    0.00   -0.12    0.00    0.00      -0.14    0.01   -0.28
#  34   -0.06   -0.13    0.01   -0.04   -0.01    0.00    0.00      -0.24   -0.35   -0.11
#  35    0.12   -0.44    0.29    0.03   -0.05    0.00    0.00      -0.06    0.09   -0.19
#  36   -0.01   -0.24    0.02   -0.07   -0.08    0.00    0.00      -0.38   -0.25   -0.28
#  37    0.09   -0.25    0.02   -0.13   -0.07    0.00    0.00      -0.35   -0.51   -0.28
#  38    0.19   -0.18    0.03   -0.03   -0.04    0.00    0.00      -0.03   -0.16   -0.22
#  39    0.33   -0.15    0.01   -0.02   -0.04    0.00    0.00       0.12   -0.14   -0.26
#  40    0.95   -0.17    0.01   -0.14   -0.02    0.00    0.00       0.63   -0.77   -0.11
#  41    0.00   -0.14    0.02   -0.08   -0.03    0.00    0.00      -0.23   -0.70   -0.28
#  42    0.12   -0.05    0.00    0.01   -0.01    0.00    0.00       0.07    0.26   -0.28
#  43    0.51   -0.01    0.00   -0.20    0.08    0.00    0.00       0.38   -1.21    0.49
#  44   -0.02   -0.13    0.01    0.09   -0.03    0.00    0.00      -0.08    0.77   -0.28
#  45   -0.02   -0.03    0.00    0.04   -0.01    0.00    0.00      -0.02    1.55   -0.28
#  46    0.11   -0.26    0.09    0.07   -0.05    0.00    0.00      -0.05    0.38   -0.28
#  47   -0.06   -0.32    0.18    0.00   -0.05    0.00    0.00      -0.25    0.01   -0.28
#  48    0.00   -0.03    0.00    0.04   -0.01    0.00    0.00       0.01    2.11   -0.28
#  49    0.12   -0.05    0.00    0.10   -0.01    0.00    0.00       0.17    2.77   -0.28
#  50    0.22   -0.19    0.03    0.61   -0.05    0.00    0.00       0.62    3.25   -0.28
#  51   -0.13   -0.13    0.03    0.25   -0.03    0.00    0.00      -0.01    2.70   -0.28
#  52    0.53   -0.10    0.00   -0.01   -0.02    0.00    0.00       0.40   -0.06   -0.26
#  53    0.44   -0.22    0.07   -0.20   -0.05    0.00    0.00       0.04   -1.00   -0.26
#  54    0.97   -0.51    0.42   -0.13   -0.10    0.00    0.00       0.65   -0.35   -0.28
#  55    0.15   -0.96    0.90   -0.32   -0.13    0.00    0.00      -0.36   -0.68   -0.28
#  56    1.50   -0.23    0.02   -0.36   -0.08    0.00    0.00       0.85   -1.32   -0.28
#  57    1.50   -0.57    0.21   -0.49   -0.13    0.00    0.00       0.52   -1.03   -0.28

@<TRIPOS>MOLECULE
       AVX17542_0       100
   57    58     0     0     0



@<TRIPOS>ATOM
      1 C1          9.6309   -44.0257     2.0138 C.3        1          -0.1414
      2 C2          8.5717   -44.7888     1.2158 C.3        1          -0.1179
      3 C3          7.5368   -43.8034     0.6693 C.3        1          -0.1543
      4 C4          9.2408   -45.5232     0.0523 C.3        1          -0.1005
      5 C5         10.2758   -46.5087     0.5990 C.3        1          -0.1215
      6 C6          9.5825   -47.5226     1.5111 C.3        1           0.1279
      7 N1         10.5733   -48.4662     2.0345 N.am       1          -0.7153
      8 C7         10.2106   -49.7304     2.3286 C.2        1           0.5060
      9 O1          9.0638   -50.0871     2.1599 O.2        1          -0.5485
     10 C8         11.2300   -50.7010     2.8673 C.3        1          -0.1432
     11 C9         12.3617   -50.8681     1.8512 C.3        1          -0.1029
     12 C10        11.7918   -51.4044     0.5366 C.3        1          -0.1526
     13 C11        12.9234   -51.5714    -0.4794 C.3        1          -0.0098
     14 N2         12.3761   -52.0864    -1.7418 N.4        1          -0.6380
     15 H1         11.9364   -52.9795    -1.5781 H          1           0.4350
     16 H2         11.6935   -51.4365    -2.1022 H          1           0.4341
     17 H3         13.1224   -52.1965    -2.4117 H          1           0.4369
     18 C12        10.9449   -47.2432    -0.5644 C.3        1          -0.0648
     19 C13        12.0071   -46.3624    -1.1703 C.ar       1          -0.0533
     20 C14        11.6850   -45.5002    -2.1947 C.ar       1          -0.1155
     21 C15        12.6552   -44.6865    -2.7578 C.ar       1          -0.1155
     22 C16        13.9586   -44.7312    -2.2966 C.ar       1           0.0173
     23 O2         15.0847   -44.0558    -2.6621 O.3        1          -0.3156
     24 C17        16.1955   -44.8203    -2.1692 C.3        1           0.2109
     25 O3         15.6269   -45.4414    -1.0066 O.3        1          -0.2990
     26 C18        14.3010   -45.5976    -1.2604 C.ar       1           0.0489
     27 C19        13.3201   -46.4164    -0.6879 C.ar       1          -0.0891
     28 C20        13.6684   -47.3318     0.4108 C.2        1           0.5380
     29 O4         13.5857   -46.9537     1.5713 O.co2      1          -0.6770
     30 O5         14.0406   -48.4706     0.1634 O.co2      1          -0.6775
     31 H4         10.3682   -44.7277     2.4032 H          1           0.0496
     32 H5         10.1248   -43.3033     1.3640 H          1           0.0494
     33 H6          9.1542   -43.5024     2.8427 H          1           0.0448
     34 H7          8.0777   -45.5112     1.8656 H          1           0.0955
     35 H8          6.7822   -44.3470     0.1007 H          1           0.0835
     36 H9          7.0601   -43.2801     1.4982 H          1           0.0443
     37 H10         8.0306   -43.0808     0.0194 H          1           0.0391
     38 H11         8.4863   -46.0670    -0.5161 H          1           0.0516
     39 H12         9.7347   -44.8008    -0.5975 H          1           0.0587
     40 H13        11.0303   -45.9649     1.1675 H          1           0.1250
     41 H14         9.1057   -46.9994     2.3400 H          1           0.0625
     42 H15         8.8280   -48.0663     0.9425 H          1           0.0743
     43 H16        11.4907   -48.1810     2.1694 H          1           0.4017
     44 H17        11.6361   -50.3190     3.8038 H          1           0.0973
     45 H18        10.7549   -51.6659     3.0439 H          1           0.0939
     46 H19        12.8367   -49.9031     1.6744 H          1           0.0815
     47 H20        13.0990   -51.5700     2.2408 H          1           0.0835
     48 H21        11.3167   -52.3694     0.7133 H          1           0.0891
     49 H22        11.0544   -50.7025     0.1471 H          1           0.0876
     50 H23        13.3984   -50.6063    -0.6562 H          1           0.1346
     51 H24        13.6607   -52.2734    -0.0900 H          1           0.1356
     52 H25        11.4007   -48.1634    -0.1991 H          1           0.0846
     53 H26        10.1973   -47.4833    -1.3206 H          1           0.0699
     54 H27        10.6702   -45.4581    -2.5617 H          1           0.1305
     55 H28        12.3926   -44.0143    -3.5614 H          1           0.1269
     56 H29        16.5084   -45.5682    -2.8977 H          1           0.1256
     57 H30        17.0267   -44.1698    -1.8970 H          1           0.0775
@<TRIPOS>BOND
     1    1    2 1
     2    1   31 1
     3    1   32 1
     4    1   33 1
     5    2    3 1
     6    2    4 1
     7    2   34 1
     8    3   35 1
     9    3   36 1
    10    3   37 1
    11    4    5 1
    12    4   38 1
    13    4   39 1
    14    5    6 1
    15    5   18 1
    16    5   40 1
    17    6    7 1
    18    6   41 1
    19    6   42 1
    20    7    8 am
    21    7   43 1
    22    8    9 2
    23    8   10 1
    24   10   11 1
    25   10   44 1
    26   10   45 1
    27   11   12 1
    28   11   46 1
    29   11   47 1
    30   12   13 1
    31   12   48 1
    32   12   49 1
    33   13   14 1
    34   13   50 1
    35   13   51 1
    36   14   15 1
    37   14   16 1
    38   14   17 1
    39   18   19 1
    40   18   52 1
    41   18   53 1
    42   19   27 ar
    43   19   20 ar
    44   20   21 ar
    45   20   54 1
    46   21   22 ar
    47   21   55 1
    48   22   26 ar
    49   22   23 1
    50   23   24 1
    51   24   25 1
    52   24   56 1
    53   24   57 1
    54   25   26 1
    55   26   27 ar
    56   27   28 1
    57   28   29 1
    58   28   30 2
