AVX17379_0, 3
##########                 Name:           AVX17379_0
##########          Protonation:                   99
##########               SMILES:   Cc1cc(nn1c2ccccc2C[NH3+])CO
##########            Long Name:   [2-[3-(hydroxymethyl)-5-methyl-pyrazol-1-yl]phenyl]methylammonium
##########          FlexRecCode: 1
##########               Number:                  421
##########   Ligand Source File: /raid1/people/rgc/Examples/sampl4/screening/ligands/build_1//sampl4-hivint-00000
##########           GlobalRank: 117
##########                 Rank:                    1
##########               Setnum:                   20
##########             Matchnum:                 7434
##########                Cloud:                    1
##########        Electrostatic:            -7.940017
##########        Van der Waals:           -16.419626
##########  Ligand Polar Desolv:             4.442411
########## Ligand Apolar Desolv:            -1.033626
##########      Internal Energy:             0.000000
##########      Receptor Energy: 0.0
########## Receptor Desolvation:             0.000000
########## Receptor Hydrophobic:             0.000000
##########         Total Energy: -20.95
##########        Ligand Charge:             1.000000
##########            Arbitrary:    +999.9990
##########     heavy atom count:   16
##########           pose count:    1
##########        Ligand Energy:             0.000000
# num electro vdwattr vdwrepu polsolv apolsol rdesolv rhydroe totalscore fullpol fullapo
#   1   -0.65   -1.46    0.59   -0.81   -0.10    0.00    0.00      -2.44   -1.64   -0.20
#   2    0.74   -1.11    0.12    0.60   -0.29    0.00    0.00       0.07    1.55   -0.74
#   3   -2.69   -1.11    0.11   -1.23   -0.18    0.00    0.00      -5.10   -3.29   -0.47
#   4    1.56   -1.22    0.16    0.26   -0.28    0.00    0.00       0.48    0.71   -0.79
#   5    3.51   -1.19    0.20    0.78   -0.07    0.00    0.00       3.23    1.89   -0.16
#   6  -20.35   -2.91    2.16   -2.89    0.73    0.00    0.00     -23.26   -6.60    1.67
#   7   -3.52   -1.44    0.32   -1.44    0.34    0.00    0.00      -5.73   -4.15    0.99
#   8   -2.91   -1.11    0.24   -1.61    0.18    0.00    0.00      -5.20   -4.99    0.57
#   9    0.78   -1.07    0.14    0.78   -0.23    0.00    0.00       0.40    2.13   -0.64
#  10   -0.56   -1.66    0.46   -1.08   -0.19    0.00    0.00      -3.02   -2.27   -0.39
#  11   -0.15   -2.25    1.28   -0.94   -0.25    0.00    0.00      -2.32   -1.76   -0.47
#  12    0.00   -1.95    0.63   -1.11   -0.22    0.00    0.00      -2.65   -2.36   -0.47
#  13    0.04   -1.08    0.11   -0.48   -0.17    0.00    0.00      -1.57   -1.31   -0.46
#  14   -0.15   -0.86    0.07   -0.72   -0.11    0.00    0.00      -1.77   -2.39   -0.37
#  15    0.04   -0.40    0.03    0.34   -0.10    0.00    0.00      -0.10    1.62   -0.48
#  16    0.77   -1.65    2.15   -4.80    0.20    0.00    0.00      -3.32  -20.49    0.87
#  17   -0.15   -0.01    0.00    2.25    0.08    0.00    0.00       2.16   17.49    0.59
#  18   -0.11   -0.05    0.00    3.61    0.15    0.00    0.00       3.60   13.34    0.57
#  19   -2.23   -0.09    0.03    3.59    0.12    0.00    0.00       1.42   17.17    0.58
#  20    0.40   -0.67    0.35    1.17   -0.13    0.00    0.00       1.13    2.59   -0.28
#  21    0.54   -0.59    0.45    0.38   -0.10    0.00    0.00       0.67    1.02   -0.28
#  22    0.47   -0.42    0.09    0.50   -0.09    0.00    0.00       0.55    1.16   -0.20
#  23    1.69   -0.25    0.03    0.28   -0.07    0.00    0.00       1.67    1.12   -0.28
#  24    1.89   -0.79    0.58    0.81   -0.12    0.00    0.00       2.38    1.91   -0.28
#  25    1.19   -0.23    0.02    0.18   -0.07    0.00    0.00       1.09    0.69   -0.28
#  26   10.21   -0.03    0.00    1.82    0.37    0.00    0.00      12.37    6.13    1.24
#  27    0.99   -0.48    0.34    0.46   -0.10    0.00    0.00       1.22    1.19   -0.25
#  28    0.40   -0.55    0.19    0.98   -0.16    0.00    0.00       0.86    1.75   -0.28
#  29   -0.12   -0.60    0.26    1.14   -0.12    0.00    0.00       0.55    2.68   -0.28
#  30   -0.16   -0.16    0.01    0.93   -0.05    0.00    0.00       0.58    5.65   -0.28
#  31    0.09   -0.08    0.00    0.51   -0.02    0.00    0.00       0.51    6.71   -0.28
#  32    0.50   -0.09    0.00    0.21   -0.02    0.00    0.00       0.60    2.60   -0.21

@<TRIPOS>MOLECULE
       AVX17379_0        99
   32    33     0     0     0



@<TRIPOS>ATOM
      1 C1         10.5966   -43.9103    -2.2568 C.3        1          -0.1045
      2 C2         11.2282   -44.6225    -1.0886 C.2        1           0.0838
      3 C3         12.3433   -45.3881    -1.1287 C.2        1          -0.2251
      4 C4         12.5884   -45.8603     0.1654 C.2        1           0.0977
      5 C5         13.7316   -46.7510     0.5788 C.3        1           0.1532
      6 O1         14.9435   -46.2747    -0.0098 O.3        1          -0.5653
      7 N1         11.6541   -45.3952     0.9551 N.2        1          -0.2997
      8 N2         10.7857   -44.6068     0.1891 N.pl3      1          -0.3545
      9 C6          9.6566   -43.9242     0.6629 C.ar       1           0.1772
     10 C7          9.5718   -42.5444     0.5315 C.ar       1          -0.1171
     11 C8          8.4581   -41.8748     0.9987 C.ar       1          -0.0639
     12 C9          7.4278   -42.5771     1.5969 C.ar       1          -0.1088
     13 C10         7.5093   -43.9509     1.7292 C.ar       1          -0.0724
     14 C11         8.6184   -44.6268     1.2591 C.ar       1          -0.1579
     15 C12         8.7039   -46.1251     1.3985 C.3        1           0.0379
     16 N3          9.3399   -46.4620     2.6792 N.4        1          -0.6350
     17 H1          9.3972   -47.4651     2.7726 H          1           0.4394
     18 H2         10.2683   -46.0681     2.7077 H          1           0.4291
     19 H3          8.7910   -46.0845     3.4369 H          1           0.4342
     20 H4         11.1755   -44.1083    -3.1590 H          1           0.0831
     21 H5          9.5767   -44.2697    -2.3934 H          1           0.0985
     22 H6         10.5810   -42.8378    -2.0633 H          1           0.0785
     23 H7         12.9388   -45.5978    -2.0049 H          1           0.1649
     24 H8         13.8262   -46.7403     1.6646 H          1           0.0718
     25 H9         13.5392   -47.7694     0.2409 H          1           0.0762
     26 H10        14.9307   -46.2570    -0.9764 H          1           0.3983
     27 H11        10.3763   -41.9955     0.0646 H          1           0.1429
     28 H12         8.3918   -40.8017     0.8970 H          1           0.1478
     29 H13         6.5578   -42.0512     1.9619 H          1           0.1458
     30 H14         6.7032   -44.4966     2.1972 H          1           0.1447
     31 H15         7.7010   -46.5505     1.3679 H          1           0.1456
     32 H16         9.2970   -46.5329     0.5799 H          1           0.1535
@<TRIPOS>BOND
     1    1    2 1
     2    1   20 1
     3    1   21 1
     4    1   22 1
     5    2    8 1
     6    2    3 2
     7    3    4 1
     8    3   23 1
     9    4    5 1
    10    4    7 2
    11    5    6 1
    12    5   24 1
    13    5   25 1
    14    6   26 1
    15    7    8 1
    16    8    9 1
    17    9   14 ar
    18    9   10 ar
    19   10   11 ar
    20   10   27 1
    21   11   12 ar
    22   11   28 1
    23   12   13 ar
    24   12   29 1
    25   13   14 ar
    26   13   30 1
    27   14   15 1
    28   15   16 1
    29   15   31 1
    30   15   32 1
    31   16   17 1
    32   16   18 1
    33   16   19 1
