AVX38787_1, 3
##########                 Name:           AVX38787_0
##########          Protonation:                   77
##########               SMILES:   C[NH+](Cc1ccccc1C(=O)NCC2CCCCC2)Cc3ccc4c(c3C(=O)[O-])OC[C@H](O4)CCC(=O)[O-]
##########            Long Name:   ]methyl]-2-(3-oxido-3-oxo-propyl)-2,3-dihydro-1,4-benzodioxine-5-carboxylate
##########          FlexRecCode: 1
##########               Number:                   37
##########   Ligand Source File: /raid1/people/rgc/Examples/sampl4/screening/ligands/build_1//sampl4-hivint-00000
##########           GlobalRank: 128
##########                 Rank:                    1
##########               Setnum:                    2
##########             Matchnum:                20855
##########                Cloud:                    1
##########        Electrostatic:           -17.410358
##########        Van der Waals:           -17.269714
##########  Ligand Polar Desolv:            18.308681
########## Ligand Apolar Desolv:            -2.481991
##########      Internal Energy:             0.000000
##########      Receptor Energy: 0.0
########## Receptor Desolvation:             0.000000
########## Receptor Hydrophobic:             0.000000
##########         Total Energy: -18.85
##########        Ligand Charge:            -1.000000
##########            Arbitrary:    +999.9990
##########     heavy atom count:   38
##########           pose count:    1
##########        Ligand Energy:             0.000000
# num electro vdwattr vdwrepu polsolv apolsol rdesolv rhydroe totalscore fullpol fullapo
#   1   -0.16   -0.71    0.04   -0.23   -0.17    0.00    0.00      -1.23   -0.56   -0.41
#   2   -0.95   -0.59    0.03   -0.41    0.05    0.00    0.00      -1.88   -1.33    0.16
#   3    0.96   -0.01    0.00    0.26    0.05    0.00    0.00       1.25    1.80    0.32
#   4   -0.05   -0.91    0.52    0.05   -0.08    0.00    0.00      -0.48    0.17   -0.30
#   5    0.17   -0.95    0.24   -0.12   -0.07    0.00    0.00      -0.73   -0.49   -0.30
#   6    0.22   -1.10    0.12   -0.28   -0.15    0.00    0.00      -1.18   -0.76   -0.40
#   7    0.13   -0.96    0.08   -0.24   -0.16    0.00    0.00      -1.15   -0.70   -0.47
#   8    0.05   -0.50    0.03   -0.15   -0.09    0.00    0.00      -0.67   -0.78   -0.47
#   9    0.03   -0.33    0.01   -0.07   -0.06    0.00    0.00      -0.41   -0.53   -0.44
#  10    0.09   -0.47    0.04   -0.10   -0.06    0.00    0.00      -0.50   -0.61   -0.40
#  11   -0.01   -0.30    0.01    0.07   -0.07    0.00    0.00      -0.29    0.61   -0.63
#  12   -0.35   -0.32    0.01    0.21    0.04    0.00    0.00      -0.41    1.62    0.29
#  13    0.01   -0.14    0.00   -0.08    0.12    0.00    0.00      -0.08   -1.39    2.20
#  14    0.00   -0.07    0.00   -0.01   -0.01    0.00    0.00      -0.08   -0.16   -0.38
#  15    0.00   -0.04    0.00    0.00    0.00    0.00    0.00      -0.04   -0.02   -0.15
#  16   -0.01   -0.10    0.00    0.00   -0.01    0.00    0.00      -0.12   -0.08   -0.22
#  17   -0.01   -0.09    0.00    0.00   -0.01    0.00    0.00      -0.11   -0.03   -0.25
#  18   -0.01   -0.04    0.00    0.00   -0.01    0.00    0.00      -0.04    0.23   -0.25
#  19    0.00   -0.01    0.00    0.00    0.00    0.00    0.00      -0.01    0.29   -0.25
#  20    0.01   -0.02    0.00    0.01    0.00    0.00    0.00      -0.01    0.32   -0.22
#  21    0.42   -0.47    0.02   -0.17   -0.07    0.00    0.00      -0.28   -0.63   -0.26
#  22   -0.56   -0.58    0.04    0.08   -0.08    0.00    0.00      -1.11    0.37   -0.39
#  23   -0.65   -0.80    0.22    0.05   -0.07    0.00    0.00      -1.26    0.23   -0.34
#  24   -0.28   -0.53    0.06    0.11   -0.08    0.00    0.00      -0.73    0.60   -0.46
#  25    0.14   -0.37    0.02    0.02   -0.04    0.00    0.00      -0.24    0.13   -0.30
#  26   -0.35   -0.21    0.01    0.62    0.06    0.00    0.00       0.12    6.35    0.62
#  27    0.02   -0.17    0.01   -0.17   -0.01    0.00    0.00      -0.33   -1.69   -0.12
#  28    0.02   -0.16    0.01    0.13   -0.02    0.00    0.00      -0.02    1.43   -0.18
#  29    0.03   -0.05    0.00    0.10   -0.01    0.00    0.00       0.07    3.50   -0.24
#  30   -0.10   -0.07    0.00   -0.35    0.00    0.00    0.00      -0.53  -15.54   -0.16
#  31    0.15   -0.05    0.00    0.62   -0.01    0.00    0.00       0.71   28.61   -0.41
#  32    0.17   -0.06    0.00    0.68   -0.01    0.00    0.00       0.78   30.30   -0.43
#  33    0.02   -0.48    0.06   -0.09   -0.03    0.00    0.00      -0.52   -0.42   -0.12
#  34   -1.14   -0.69    0.07    2.09    0.06    0.00    0.00       0.40    8.69    0.27
#  35    0.48   -0.51    0.02   -0.14   -0.06    0.00    0.00      -0.20   -0.75   -0.30
#  36   -0.86   -0.60    0.02    0.97   -0.09    0.00    0.00      -0.56    4.31   -0.41
#  37    7.64   -1.26    0.16   -5.04   -0.06    0.00    0.00       1.44  -14.20   -0.17
#  38  -14.10   -1.19    0.10    7.45   -0.13    0.00    0.00      -7.86   18.94   -0.33
#  39  -10.89   -3.43    2.59   11.25   -0.24    0.00    0.00      -0.72   27.45   -0.59
#  40    0.47   -0.22    0.02    0.18   -0.05    0.00    0.00       0.40    0.68   -0.18
#  41    0.33   -0.29    0.03    0.58   -0.07    0.00    0.00       0.59    1.88   -0.22
#  42    0.12   -0.25    0.02    0.33   -0.07    0.00    0.00       0.14    1.22   -0.28
#  43   -0.15   -0.29    0.16    0.02   -0.04    0.00    0.00      -0.29    0.12   -0.20
#  44   -0.43   -0.56    0.65    0.38   -0.09    0.00    0.00      -0.04    1.16   -0.27
#  45   -0.32   -0.32    0.07    0.60   -0.09    0.00    0.00      -0.06    1.88   -0.28
#  46   -0.26   -0.34    0.10    0.47   -0.09    0.00    0.00      -0.12    1.47   -0.28
#  47   -0.02   -0.08    0.00    0.10   -0.02    0.00    0.00      -0.02    1.33   -0.28
#  48   -0.02   -0.03    0.00    0.04   -0.01    0.00    0.00      -0.02    1.27   -0.22
#  49   -0.04    0.00    0.00    0.05    0.01    0.00    0.00       0.01    2.19    0.39
#  50    0.03   -0.02    0.00    0.00   -0.01    0.00    0.00       0.00   -0.14   -0.28
#  51   -0.01   -0.02    0.00    0.00   -0.01    0.00    0.00      -0.04   -0.16   -0.28
#  52    0.00   -0.01    0.00    0.00    0.00    0.00    0.00      -0.01    0.13   -0.28
#  53    0.00   -0.03    0.00    0.00   -0.01    0.00    0.00      -0.04   -0.05   -0.28
#  54    0.00   -0.05    0.00    0.01   -0.01    0.00    0.00      -0.04    0.26   -0.24
#  55    0.01   -0.07    0.01    0.00   -0.02    0.00    0.00      -0.07    0.03   -0.28
#  56    0.01   -0.02    0.00    0.00    0.00    0.00    0.00      -0.01    0.07   -0.28
#  57    0.00   -0.01    0.00    0.00    0.00    0.00    0.00      -0.01   -0.14   -0.28
#  58    0.00   -0.01    0.00    0.00    0.00    0.00    0.00      -0.01   -0.11   -0.28
#  59    0.00    0.00    0.00    0.00    0.00    0.00    0.00      -0.01   -0.18   -0.28
#  60    0.00    0.00    0.00    0.00    0.00    0.00    0.00       0.00   -0.13   -0.28
#  61   -0.01    0.00    0.00    0.00    0.00    0.00    0.00      -0.02   -0.19   -0.28
#  62    0.00   -0.01    0.00    0.00    0.00    0.00    0.00      -0.02   -0.21   -0.28
#  63    1.02   -0.17    0.01   -0.16   -0.04    0.00    0.00       0.66   -0.97   -0.23
#  64    1.15   -0.19    0.02   -0.18   -0.05    0.00    0.00       0.74   -0.90   -0.26
#  65    0.40   -0.26    0.11    0.08   -0.03    0.00    0.00       0.30    0.39   -0.18
#  66    0.08   -0.10    0.01   -0.14   -0.03    0.00    0.00      -0.18   -1.34   -0.28
#  67    0.01   -0.03    0.00   -0.05   -0.01    0.00    0.00      -0.08   -1.87   -0.28
#  68   -0.04   -0.10    0.01   -0.19   -0.03    0.00    0.00      -0.35   -2.03   -0.28
#  69   -0.01   -0.05    0.00   -0.05   -0.01    0.00    0.00      -0.11   -1.19   -0.28
#  70   -0.01   -0.01    0.00   -0.03    0.00    0.00    0.00      -0.05   -2.25   -0.27
#  71   -0.01   -0.01    0.00   -0.03    0.00    0.00    0.00      -0.05   -2.40   -0.28
#  72   -0.20   -0.39    0.40   -0.29   -0.05    0.00    0.00      -0.53   -1.54   -0.28
#  73    0.17   -0.19    0.04   -0.48   -0.05    0.00    0.00      -0.51   -2.90   -0.28

@<TRIPOS>MOLECULE
       AVX38787_0        77
   73    76     0     0     0



@<TRIPOS>ATOM
      1 C1          8.3847   -43.6077     0.2179 C.3        1          -0.0637
      2 N1          8.7344   -44.9905     0.5693 N.4        1          -0.3783
      3 H1          8.0408   -45.6189     0.1926 H          1           0.4150
      4 C2          8.7773   -45.1282     2.0312 C.3        1           0.0369
      5 C3          7.3753   -45.2783     2.5631 C.ar       1          -0.0839
      6 C4          6.6463   -44.1611     2.9158 C.ar       1          -0.0991
      7 C5          5.3592   -44.2971     3.4041 C.ar       1          -0.0876
      8 C6          4.7941   -45.5528     3.5423 C.ar       1          -0.1022
      9 C7          5.5118   -46.6777     3.1928 C.ar       1          -0.0817
     10 C8          6.8092   -46.5471     2.6945 C.ar       1          -0.1210
     11 C9          7.5822   -47.7482     2.3126 C.2        1           0.5517
     12 O1          8.7134   -47.6317     1.8832 O.2        1          -0.5412
     13 N2          7.0327   -48.9721     2.4408 N.am       1          -0.7108
     14 C10         7.7987   -50.1622     2.0625 C.3        1           0.1172
     15 C11         6.8405   -51.2544     1.5830 C.3        1          -0.0993
     16 C12         6.0547   -50.7477     0.3720 C.3        1          -0.1153
     17 C13         5.0966   -51.8400    -0.1076 C.3        1          -0.1198
     18 C14         4.1243   -52.1960     1.0188 C.3        1          -0.1222
     19 C15         4.9101   -52.7027     2.2299 C.3        1          -0.1195
     20 C16         5.8682   -51.6104     2.7094 C.3        1          -0.1137
     21 C17        10.0509   -45.3206     0.0076 C.3        1           0.0712
     22 C18        10.2019   -46.8178    -0.0726 C.ar       1          -0.1009
     23 C19         9.1722   -47.5888    -0.5644 C.ar       1          -0.1662
     24 C20         9.3034   -48.9657    -0.6421 C.ar       1          -0.1056
     25 C21        10.4719   -49.5833    -0.2265 C.ar       1           0.0510
     26 O2         10.5859   -50.9369    -0.3135 O.3        1          -0.2968
     27 C22        11.6186   -51.5462     0.4678 C.3        1           0.0496
     28 C23        11.2442   -51.4999     1.9505 C.3        1          -0.0833
     29 C24        10.2570   -52.6264     2.2626 C.3        1          -0.1798
     30 C25         9.8881   -52.5808     3.7230 C.2        1           0.4904
     31 O3          8.9330   -51.9180     4.0902 O.co2      1          -0.6989
     32 O4         10.5448   -53.2067     4.5375 O.co2      1          -0.7073
     33 C26        12.9057   -50.7471     0.2306 C.3        1           0.0174
     34 O5         12.6700   -49.4112     0.6867 O.3        1          -0.2559
     35 C27        11.5204   -48.8195     0.2734 C.ar       1           0.1024
     36 C28        11.3905   -47.4251     0.3475 C.ar       1          -0.1171
     37 C29        12.4962   -46.6056     0.8688 C.2        1           0.5230
     38 O6         13.3490   -46.1726     0.1060 O.co2      1          -0.6965
     39 O7         12.5625   -46.3573     2.0648 O.co2      1          -0.6419
     40 H2          9.1341   -42.9287     0.6250 H          1           0.1320
     41 H3          8.3531   -43.5055    -0.8668 H          1           0.1091
     42 H4          7.4078   -43.3628     0.6346 H          1           0.1213
     43 H5          9.3626   -46.0088     2.2961 H          1           0.1585
     44 H6          9.2381   -44.2414     2.4663 H          1           0.1311
     45 H7          7.0817   -43.1784     2.8107 H          1           0.1421
     46 H8          4.7930   -43.4195     3.6791 H          1           0.1390
     47 H9          3.7889   -45.6521     3.9248 H          1           0.1385
     48 H10         5.0696   -47.6569     3.3011 H          1           0.1333
     49 H11         6.1300   -49.0650     2.7834 H          1           0.4022
     50 H12         8.4915   -49.9086     1.2602 H          1           0.0785
     51 H13         8.3586   -50.5234     2.9254 H          1           0.0771
     52 H14         7.4106   -52.1398     1.3017 H          1           0.0784
     53 H15         5.4847   -49.8623     0.6533 H          1           0.0667
     54 H16         6.7474   -50.4941    -0.4305 H          1           0.0575
     55 H17         4.5366   -51.4790    -0.9703 H          1           0.0623
     56 H18         5.6665   -52.7255    -0.3889 H          1           0.0618
     57 H19         3.5542   -51.3105     1.3002 H          1           0.0625
     58 H20         3.4417   -52.9741     0.6773 H          1           0.0620
     59 H21         4.2174   -52.9562     3.0323 H          1           0.0658
     60 H22         5.4802   -53.5881     1.9486 H          1           0.0626
     61 H23         6.4281   -51.9714     3.5722 H          1           0.0690
     62 H24         5.2983   -50.7249     2.9908 H          1           0.0678
     63 H25        10.1374   -44.8928    -0.9912 H          1           0.1567
     64 H26        10.8322   -44.9103     0.6474 H          1           0.1419
     65 H27         8.2572   -47.1174    -0.8911 H          1           0.1092
     66 H28         8.4896   -49.5614    -1.0287 H          1           0.1344
     67 H29        11.7589   -52.5805     0.1538 H          1           0.0817
     68 H30        12.1418   -51.6251     2.5561 H          1           0.0868
     69 H31        10.7830   -50.5389     2.1790 H          1           0.0741
     70 H32         9.3595   -52.5012     1.6570 H          1           0.0629
     71 H33        10.7183   -53.5873     2.0342 H          1           0.0560
     72 H34        13.7263   -51.1912     0.7941 H          1           0.0766
     73 H35        13.1454   -50.7386    -0.8326 H          1           0.1245
@<TRIPOS>BOND
     1    1    2 1
     2    1   40 1
     3    1   41 1
     4    1   42 1
     5    2    3 1
     6    2    4 1
     7    2   21 1
     8    4    5 1
     9    4   43 1
    10    4   44 1
    11    5   10 ar
    12    5    6 ar
    13    6    7 ar
    14    6   45 1
    15    7    8 ar
    16    7   46 1
    17    8    9 ar
    18    8   47 1
    19    9   10 ar
    20    9   48 1
    21   10   11 1
    22   11   12 2
    23   11   13 am
    24   13   14 1
    25   13   49 1
    26   14   15 1
    27   14   50 1
    28   14   51 1
    29   15   20 1
    30   15   16 1
    31   15   52 1
    32   16   17 1
    33   16   53 1
    34   16   54 1
    35   17   18 1
    36   17   55 1
    37   17   56 1
    38   18   19 1
    39   18   57 1
    40   18   58 1
    41   19   20 1
    42   19   59 1
    43   19   60 1
    44   20   61 1
    45   20   62 1
    46   21   22 1
    47   21   63 1
    48   21   64 1
    49   22   36 ar
    50   22   23 ar
    51   23   24 ar
    52   23   65 1
    53   24   25 ar
    54   24   66 1
    55   25   35 ar
    56   25   26 1
    57   26   27 1
    58   27   28 1
    59   27   33 1
    60   27   67 1
    61   28   29 1
    62   28   68 1
    63   28   69 1
    64   29   30 1
    65   29   70 1
    66   29   71 1
    67   30   31 1
    68   30   32 2
    69   33   34 1
    70   33   72 1
    71   33   73 1
    72   34   35 1
    73   35   36 ar
    74   36   37 1
    75   37   38 1
    76   37   39 2
