AVX38789_1, 3
##########                 Name:           AVX38789_0
##########          Protonation:                   77
##########               SMILES:   C[NH+](Cc1ccccc1C(=O)NCc2ccco2)Cc3ccc4c(c3C(=O)[O-])OC[C@H](O4)CCC(=O)[O-]
##########            Long Name:   ]methyl]-2-(3-oxido-3-oxo-propyl)-2,3-dihydro-1,4-benzodioxine-5-carboxylate
##########          FlexRecCode: 1
##########               Number:                  211
##########   Ligand Source File: /raid1/people/rgc/Examples/sampl4/screening/ligands/build_1//sampl4-hivint-00000
##########           GlobalRank: 129
##########                 Rank:                    1
##########               Setnum:                   98
##########             Matchnum:                 9954
##########                Cloud:                    1
##########        Electrostatic:           -28.733032
##########        Van der Waals:           -11.067725
##########  Ligand Polar Desolv:            22.845184
########## Ligand Apolar Desolv:            -1.885067
##########      Internal Energy:             0.000000
##########      Receptor Energy: 0.0
########## Receptor Desolvation:             0.000000
########## Receptor Hydrophobic:             0.000000
##########         Total Energy: -18.84
##########        Ligand Charge:            -1.000000
##########            Arbitrary:    +999.9990
##########     heavy atom count:   37
##########           pose count:    1
##########        Ligand Energy:             0.000000
# num electro vdwattr vdwrepu polsolv apolsol rdesolv rhydroe totalscore fullpol fullapo
#   1    0.00   -0.33    0.03   -0.10   -0.07    0.00    0.00      -0.47   -0.61   -0.41
#   2   -0.02   -0.18    0.00   -0.15    0.02    0.00    0.00      -0.33   -1.54    0.16
#   3    0.02    0.00    0.00    0.05    0.01    0.00    0.00       0.07    2.12    0.32
#   4    0.00   -0.08    0.00    0.01   -0.01    0.00    0.00      -0.08    0.19   -0.30
#   5    0.00   -0.04    0.00   -0.01   -0.01    0.00    0.00      -0.06   -0.49   -0.30
#   6   -0.01   -0.05    0.00   -0.01   -0.01    0.00    0.00      -0.07   -0.76   -0.40
#   7    0.00   -0.02    0.00   -0.01    0.00    0.00    0.00      -0.03   -0.67   -0.47
#   8    0.00    0.00    0.00    0.00    0.00    0.00    0.00      -0.01   -0.72   -0.47
#   9    0.00    0.00    0.00    0.00    0.00    0.00    0.00      -0.01   -0.47   -0.44
#  10    0.00   -0.02    0.00   -0.01   -0.01    0.00    0.00      -0.03   -0.59   -0.40
#  11   -0.06   -0.03    0.00    0.01   -0.01    0.00    0.00      -0.09    0.65   -0.63
#  12    0.05   -0.03    0.00    0.02    0.01    0.00    0.00       0.04    1.13    0.29
#  13    0.14   -0.03    0.00   -0.01    0.04    0.00    0.00       0.13   -0.78    2.32
#  14   -0.06   -0.05    0.00   -0.01   -0.01    0.00    0.00      -0.13   -0.40   -0.47
#  15    0.02   -0.08    0.00    0.01   -0.01    0.00    0.00      -0.07    0.19   -0.31
#  16    0.07   -0.16    0.00    0.03   -0.03    0.00    0.00      -0.08    0.55   -0.51
#  17    0.09   -0.11    0.00    0.02   -0.02    0.00    0.00      -0.02    0.59   -0.51
#  18    0.01   -0.05    0.00    0.00    0.00    0.00    0.00      -0.05    0.06   -0.27
#  19    0.05   -0.04    0.00    0.01    0.00    0.00    0.00       0.04    0.80    0.25
#  20    0.01   -0.31    0.03   -0.09   -0.04    0.00    0.00      -0.40   -0.55   -0.26
#  21   -0.09   -0.58    0.07    0.06   -0.07    0.00    0.00      -0.61    0.32   -0.39
#  22   -0.35   -1.81    1.26    0.05   -0.10    0.00    0.00      -0.96    0.17   -0.34
#  23   -0.31   -1.34    0.39    0.17   -0.14    0.00    0.00      -1.24    0.56   -0.46
#  24    0.17   -0.60    0.04    0.03   -0.06    0.00    0.00      -0.43    0.15   -0.30
#  25   -1.68   -0.55    0.02    1.67    0.16    0.00    0.00      -0.37    6.29    0.62
#  26    0.45   -0.56    0.04   -0.48   -0.03    0.00    0.00      -0.59   -1.69   -0.12
#  27   -0.77   -0.47    0.03    0.37   -0.05    0.00    0.00      -0.89    1.43   -0.18
#  28   -2.35   -0.72    0.07    1.17   -0.08    0.00    0.00      -1.91    3.49   -0.24
#  29   12.96   -2.12    0.54   -6.62   -0.07    0.00    0.00       4.69  -15.50   -0.16
#  30  -17.66   -1.69    0.35   11.76   -0.17    0.00    0.00      -7.41   28.60   -0.41
#  31  -23.80   -4.53    2.36   15.09   -0.21    0.00    0.00     -11.10   30.27   -0.43
#  32    0.07   -0.97    0.25   -0.12   -0.03    0.00    0.00      -0.80   -0.42   -0.12
#  33   -0.40   -0.43    0.02    1.43    0.04    0.00    0.00       0.67    8.65    0.27
#  34    0.19   -0.39    0.01   -0.11   -0.04    0.00    0.00      -0.34   -0.72   -0.30
#  35   -0.10   -0.28    0.01    0.49   -0.05    0.00    0.00       0.07    4.23   -0.41
#  36    0.08   -0.14    0.00   -0.72   -0.01    0.00    0.00      -0.79  -14.02   -0.17
#  37    0.13   -0.12    0.00    0.98   -0.02    0.00    0.00       0.98   18.65   -0.33
#  38   -0.05   -0.09    0.00    0.97   -0.02    0.00    0.00       0.82   27.30   -0.59
#  39    0.00   -0.20    0.04    0.13   -0.03    0.00    0.00      -0.06    0.73   -0.18
#  40    0.00   -0.16    0.03    0.27   -0.03    0.00    0.00       0.11    1.95   -0.22
#  41    0.01   -0.05    0.00    0.05   -0.01    0.00    0.00       0.01    1.30   -0.28
#  42    0.00   -0.01    0.00    0.00    0.00    0.00    0.00      -0.01    0.21   -0.20
#  43    0.01   -0.03    0.00    0.04   -0.01    0.00    0.00       0.01    1.28   -0.27
#  44    0.02   -0.02    0.00    0.03    0.00    0.00    0.00       0.02    1.97   -0.28
#  45    0.01    0.00    0.00    0.01    0.00    0.00    0.00       0.01    1.47   -0.28
#  46    0.00    0.00    0.00    0.00    0.00    0.00    0.00       0.00    1.20   -0.28
#  47   -0.01    0.00    0.00    0.00    0.00    0.00    0.00      -0.01    0.98   -0.22
#  48   -0.08    0.00    0.00    0.01    0.00    0.00    0.00      -0.06    1.32    0.43
#  49   -0.04   -0.03    0.00    0.00   -0.01    0.00    0.00      -0.08   -0.21   -0.28
#  50   -0.03   -0.01    0.00    0.00    0.00    0.00    0.00      -0.04   -0.26   -0.28
#  51   -0.07   -0.04    0.00   -0.01   -0.01    0.00    0.00      -0.13   -0.27   -0.28
#  52   -0.06   -0.02    0.00    0.00    0.00    0.00    0.00      -0.09   -0.14   -0.28
#  53   -0.06   -0.01    0.00    0.00    0.00    0.00    0.00      -0.07    0.54   -0.28
#  54    0.01   -0.19    0.03   -0.17   -0.04    0.00    0.00      -0.35   -0.89   -0.23
#  55    0.01   -0.05    0.00   -0.05   -0.01    0.00    0.00      -0.10   -0.84   -0.26
#  56    0.27   -1.25    5.60    0.20   -0.07    0.00    0.00       4.76    0.54   -0.18
#  57    0.39   -0.39    0.11   -0.43   -0.09    0.00    0.00      -0.41   -1.27   -0.28
#  58    1.15   -0.29    0.06   -0.49   -0.07    0.00    0.00       0.36   -1.85   -0.28
#  59    0.53   -0.10    0.00   -0.21   -0.03    0.00    0.00       0.20   -2.01   -0.28
#  60    0.71   -0.20    0.02   -0.22   -0.05    0.00    0.00       0.27   -1.19   -0.28
#  61    0.64   -0.26    0.05   -0.44   -0.05    0.00    0.00      -0.07   -2.26   -0.27
#  62    0.54   -0.25    0.04   -0.56   -0.07    0.00    0.00      -0.28   -2.39   -0.28
#  63    0.41   -0.54    0.31   -0.40   -0.07    0.00    0.00      -0.30   -1.53   -0.28
#  64    0.10   -0.73    0.92   -0.88   -0.09    0.00    0.00      -0.67   -2.87   -0.28

@<TRIPOS>MOLECULE
       AVX38789_0        77
   64    67     0     0     0



@<TRIPOS>ATOM
      1 C1          6.0442   -50.4719    -1.0623 C.3        1          -0.0638
      2 N1          5.7626   -50.0921     0.3285 N.4        1          -0.3785
      3 H1          6.5846   -50.2472     0.8926 H          1           0.4147
      4 C2          4.6541   -50.9068     0.8437 C.3        1           0.0364
      5 C3          5.1734   -52.2619     1.2503 C.ar       1          -0.0825
      6 C4          5.2070   -53.2928     0.3338 C.ar       1          -0.0991
      7 C5          5.6835   -54.5372     0.7053 C.ar       1          -0.0860
      8 C6          6.1291   -54.7571     1.9968 C.ar       1          -0.1021
      9 C7          6.1014   -53.7349     2.9226 C.ar       1          -0.0800
     10 C8          5.6268   -52.4753     2.5528 C.ar       1          -0.1215
     11 C9          5.5994   -51.3734     3.5383 C.2        1           0.5565
     12 O1          4.7506   -50.5072     3.4580 O.2        1          -0.5387
     13 N2          6.5156   -51.3297     4.5257 N.am       1          -0.7114
     14 C10         6.4885   -50.2381     5.5024 C.3        1           0.2006
     15 C11         7.0281   -50.7299     6.8207 C.2        1          -0.0505
     16 C12         8.3151   -50.6862     7.2094 C.2        1          -0.1741
     17 C13         8.3709   -51.2490     8.5052 C.2        1          -0.2174
     18 C14         7.1147   -51.6030     8.8309 C.2        1          -0.0234
     19 O2          6.3047   -51.2808     7.8091 O.3        1          -0.1717
     20 C15         5.3925   -48.6715     0.3827 C.3        1           0.0709
     21 C16         6.6388   -47.8255     0.3351 C.ar       1          -0.1011
     22 C17         6.6890   -46.7179    -0.4817 C.ar       1          -0.1665
     23 C18         7.8305   -45.9346    -0.5306 C.ar       1          -0.1057
     24 C19         8.9348   -46.2558     0.2420 C.ar       1           0.0510
     25 O3         10.0471   -45.4731     0.1853 O.3        1          -0.2968
     26 C20        11.2616   -46.0458     0.6806 C.3        1           0.0496
     27 C21        11.7597   -47.1230    -0.2850 C.3        1          -0.0833
     28 C22        13.0575   -47.7291     0.2524 C.3        1          -0.1798
     29 C23        14.1007   -46.6493     0.3815 C.2        1           0.4903
     30 O4         14.4539   -46.0220    -0.6025 O.co2      1          -0.6989
     31 O5         14.5913   -46.4027     1.4701 O.co2      1          -0.7073
     32 C24        10.9505   -46.6730     2.0448 C.3        1           0.0174
     33 O6          9.9762   -47.6995     1.8315 O.3        1          -0.2559
     34 C25         8.9008   -47.3712     1.0711 C.ar       1           0.1025
     35 C26         7.7437   -48.1616     1.1251 C.ar       1          -0.1170
     36 C27         7.6936   -49.3411     2.0040 C.2        1           0.5228
     37 O7          7.2941   -49.2298     3.1550 O.co2      1          -0.6965
     38 O8          8.0515   -50.4328     1.5838 O.co2      1          -0.6417
     39 H2          5.1561   -50.3043    -1.6717 H          1           0.1322
     40 H3          6.8666   -49.8672    -1.4447 H          1           0.1093
     41 H4          6.3189   -51.5260    -1.1025 H          1           0.1215
     42 H5          4.2117   -50.4128     1.7089 H          1           0.1588
     43 H6          3.8986   -51.0252     0.0672 H          1           0.1319
     44 H7          4.8605   -53.1279    -0.6757 H          1           0.1428
     45 H8          5.7073   -55.3409    -0.0157 H          1           0.1395
     46 H9          6.4991   -55.7312     2.2806 H          1           0.1389
     47 H10         6.4494   -53.9077     3.9301 H          1           0.1339
     48 H11         7.1931   -52.0210     4.5898 H          1           0.4062
     49 H12         7.1038   -49.4133     5.1428 H          1           0.1096
     50 H13         5.4625   -49.8947     5.6351 H          1           0.0948
     51 H14         9.1463   -50.2966     6.6405 H          1           0.1536
     52 H15         9.2530   -51.3716     9.1162 H          1           0.1532
     53 H16         6.8087   -52.0641     9.7582 H          1           0.2069
     54 H17         4.7563   -48.4291    -0.4684 H          1           0.1569
     55 H18         4.8529   -48.4716     1.3083 H          1           0.1423
     56 H19         5.8337   -46.4586    -1.0879 H          1           0.1094
     57 H20         7.8600   -45.0684    -1.1750 H          1           0.1344
     58 H21        12.0186   -45.2695     0.7912 H          1           0.0817
     59 H22        11.0051   -47.9041    -0.3786 H          1           0.0868
     60 H23        11.9442   -46.6774    -1.2626 H          1           0.0741
     61 H24        12.8730   -48.1749     1.2298 H          1           0.0629
     62 H25        13.4123   -48.4966    -0.4358 H          1           0.0560
     63 H26        11.8568   -47.1053     2.4687 H          1           0.0767
     64 H27        10.5489   -45.9154     2.7176 H          1           0.1245
@<TRIPOS>BOND
     1    1    2 1
     2    1   39 1
     3    1   40 1
     4    1   41 1
     5    2    3 1
     6    2    4 1
     7    2   20 1
     8    4    5 1
     9    4   42 1
    10    4   43 1
    11    5   10 ar
    12    5    6 ar
    13    6    7 ar
    14    6   44 1
    15    7    8 ar
    16    7   45 1
    17    8    9 ar
    18    8   46 1
    19    9   10 ar
    20    9   47 1
    21   10   11 1
    22   11   12 2
    23   11   13 am
    24   13   14 1
    25   13   48 1
    26   14   15 1
    27   14   49 1
    28   14   50 1
    29   15   19 1
    30   15   16 2
    31   16   17 1
    32   16   51 1
    33   17   18 2
    34   17   52 1
    35   18   19 1
    36   18   53 1
    37   20   21 1
    38   20   54 1
    39   20   55 1
    40   21   35 ar
    41   21   22 ar
    42   22   23 ar
    43   22   56 1
    44   23   24 ar
    45   23   57 1
    46   24   34 ar
    47   24   25 1
    48   25   26 1
    49   26   27 1
    50   26   32 1
    51   26   58 1
    52   27   28 1
    53   27   59 1
    54   27   60 1
    55   28   29 1
    56   28   61 1
    57   28   62 1
    58   29   30 1
    59   29   31 2
    60   32   33 1
    61   32   63 1
    62   32   64 1
    63   33   34 1
    64   34   35 ar
    65   35   36 1
    66   36   37 1
    67   36   38 2
