AVX38743_5, 3
##########                 Name:           AVX38743_0
##########          Protonation:                  100
##########               SMILES:   c1ccc\2c(c1)C[C@H](/C2=C\c3ccc4c(c3C(=O)[O-])O[C@H](CO4)CCC(=O)[O-])O
##########            Long Name:   ]methyl]-3-(3-oxido-3-oxo-propyl)-2,3-dihydro-1,4-benzodioxine-5-carboxylate
##########          FlexRecCode: 1
##########               Number:                   41
##########   Ligand Source File: /raid1/people/rgc/Examples/sampl4/screening/ligands/build_1//sampl4-hivint-00000
##########           GlobalRank: 132
##########                 Rank:                    1
##########               Setnum:                   14
##########             Matchnum:                12091
##########                Cloud:                    1
##########        Electrostatic:           -34.149998
##########        Van der Waals:           -26.524019
##########  Ligand Polar Desolv:            45.935410
########## Ligand Apolar Desolv:            -2.155326
##########      Internal Energy:             0.000000
##########      Receptor Energy: 0.0
########## Receptor Desolvation:             0.000000
########## Receptor Hydrophobic:             0.000000
##########         Total Energy: -16.89
##########        Ligand Charge:            -2.000000
##########            Arbitrary:    +999.9990
##########     heavy atom count:   29
##########           pose count:    1
##########        Ligand Energy:             0.000000
# num electro vdwattr vdwrepu polsolv apolsol rdesolv rhydroe totalscore fullpol fullapo
#   1   -3.19   -1.19    0.37    3.75    0.44    0.00    0.00       0.19   14.11    1.67
#   2    0.63   -0.44    0.05   -0.48   -0.02    0.00    0.00      -0.26   -2.50   -0.12
#   3   -0.17   -0.20    0.01    0.13   -0.03    0.00    0.00      -0.26    1.14   -0.28
#   4   -0.06   -0.19    0.00    0.08   -0.03    0.00    0.00      -0.19    1.41   -0.44
#   5    0.02   -0.11    0.00    0.04   -0.02    0.00    0.00      -0.06    1.31   -0.47
#   6    0.03   -0.11    0.00    0.03   -0.02    0.00    0.00      -0.07    0.99   -0.47
#   7    0.03   -0.28    0.01    0.25   -0.05    0.00    0.00      -0.04    2.46   -0.47
#   8    0.01   -0.52    0.04    0.64   -0.08    0.00    0.00       0.09    3.92   -0.47
#   9   -0.02   -0.34    0.01    0.47   -0.05    0.00    0.00       0.07    3.84   -0.43
#  10   -0.72   -0.46    0.02    0.35   -0.07    0.00    0.00      -0.89    2.06   -0.40
#  11    0.28   -0.68    0.03    1.07   -0.09    0.00    0.00       0.61    4.39   -0.37
#  12   -0.39   -0.84    0.05   -0.05   -0.11    0.00    0.00      -1.35   -0.17   -0.37
#  13   -1.13   -1.10    0.16    0.71   -0.13    0.00    0.00      -1.49    2.12   -0.39
#  14   -0.93   -1.86    0.35    0.26   -0.21    0.00    0.00      -2.38    0.57   -0.46
#  15    0.20   -1.87    0.33   -0.18   -0.13    0.00    0.00      -1.65   -0.40   -0.30
#  16   -0.79   -2.99    1.68    3.35    0.34    0.00    0.00       1.59    6.72    0.68
#  17    0.08   -1.45    0.31   -0.67   -0.06    0.00    0.00      -1.78   -1.35   -0.12
#  18    0.54   -1.13    0.15   -0.48   -0.06    0.00    0.00      -0.96   -0.98   -0.12
#  19   -1.23   -1.22    0.36    0.81   -0.08    0.00    0.00      -1.35    1.88   -0.18
#  20   -1.61   -0.71    0.08    2.20   -0.08    0.00    0.00      -0.11    6.68   -0.24
#  21    3.88   -0.74    0.07   -5.67   -0.04    0.00    0.00      -2.50  -22.60   -0.16
#  22   -4.96   -0.79    0.19    7.74   -0.09    0.00    0.00       2.09   35.16   -0.41
#  23   -4.75   -0.64    0.07    8.28   -0.09    0.00    0.00       2.87   40.99   -0.43
#  24   -4.83   -1.51    0.28    6.47    0.10    0.00    0.00       0.53   15.20    0.24
#  25    1.38   -1.56    0.30   -0.60   -0.12    0.00    0.00      -0.61   -1.50   -0.30
#  26   -2.03   -1.27    0.15    4.09   -0.16    0.00    0.00       0.77   10.77   -0.41
#  27   14.13   -2.56    1.10  -10.80   -0.07    0.00    0.00       1.80  -25.19   -0.17
#  28  -23.54   -4.74    2.67   19.61   -0.17    0.00    0.00      -6.17   39.21   -0.33
#  29  -14.03   -2.90    1.85   17.39   -0.23    0.00    0.00       2.08   44.37   -0.59
#  30    1.56   -0.02    0.00   -1.29    0.25    0.00    0.00       0.50   -6.51    1.24
#  31    0.34   -0.25    0.07   -0.36   -0.03    0.00    0.00      -0.23   -2.23   -0.20
#  32    0.06   -0.05    0.00   -0.06   -0.01    0.00    0.00      -0.05   -1.59   -0.27
#  33    0.08   -0.06    0.00   -0.09   -0.01    0.00    0.00      -0.08   -1.88   -0.28
#  34   -0.01   -0.01    0.00   -0.03    0.00    0.00    0.00      -0.05   -1.98   -0.28
#  35   -0.02   -0.01    0.00   -0.03    0.00    0.00    0.00      -0.06   -2.03   -0.28
#  36   -0.04   -0.06    0.00   -0.12   -0.01    0.00    0.00      -0.24   -2.65   -0.28
#  37   -0.01   -0.23    0.04   -0.34   -0.05    0.00    0.00      -0.60   -1.91   -0.28
#  38    1.02   -0.19    0.02   -0.46   -0.04    0.00    0.00       0.35   -2.51   -0.21
#  39    0.84   -0.23    0.07   -0.85   -0.04    0.00    0.00      -0.21   -4.33   -0.19
#  40    0.62   -0.61    0.22   -1.90   -0.13    0.00    0.00      -1.80   -4.22   -0.28
#  41    0.00   -0.44    0.10   -0.71   -0.10    0.00    0.00      -1.15   -2.02   -0.28
#  42    0.00   -0.59    0.24   -2.15   -0.13    0.00    0.00      -2.62   -4.54   -0.28
#  43    0.97   -0.60    0.25   -1.24   -0.13    0.00    0.00      -0.74   -2.71   -0.28
#  44    1.25   -0.70    0.94   -0.40   -0.10    0.00    0.00       1.00   -1.13   -0.28
#  45    1.67   -0.56    0.24   -1.90   -0.11    0.00    0.00      -0.65   -4.77   -0.28
#  46    0.58   -0.33    0.10   -0.97   -0.07    0.00    0.00      -0.69   -3.90   -0.28
#  47    0.07   -0.21    0.02    0.02   -0.05    0.00    0.00      -0.14    0.13   -0.27

@<TRIPOS>MOLECULE
       AVX38743_0       100
   47    50     0     0     0



@<TRIPOS>ATOM
      1 O1         10.3784   -48.6942    -1.7396 O.3        1          -0.5417
      2 C1         11.1939   -49.2325    -0.6969 C.3        1           0.1457
      3 C2         10.6953   -50.6283    -0.2986 C.3        1          -0.1088
      4 C3         10.3038   -50.5399     1.1571 C.ar       1          -0.1030
      5 C4          9.7951   -51.5020     2.0094 C.ar       1          -0.1097
      6 C5          9.5063   -51.1874     3.3243 C.ar       1          -0.1373
      7 C6          9.7242   -49.9050     3.7970 C.ar       1          -0.1188
      8 C7         10.2311   -48.9360     2.9600 C.ar       1          -0.1068
      9 C8         10.5274   -49.2457     1.6240 C.ar       1          -0.0183
     10 C9         11.0690   -48.3927     0.5512 C.2        1          -0.1629
     11 C10        11.3951   -47.0928     0.6645 C.2        1           0.0357
     12 C11        12.0581   -46.4015    -0.4504 C.ar       1          -0.0346
     13 C12        11.2997   -45.7578    -1.4277 C.ar       1          -0.1289
     14 C13        11.9228   -45.1078    -2.4730 C.ar       1          -0.1216
     15 C14        13.3085   -45.0840    -2.5685 C.ar       1           0.0246
     16 O2         13.8907   -44.4262    -3.6091 O.3        1          -0.3178
     17 C15        15.2616   -44.7363    -3.8805 C.3        1           0.0265
     18 C16        16.0281   -44.7287    -2.5509 C.3        1           0.0412
     19 C17        17.4980   -45.0725    -2.8006 C.3        1          -0.0753
     20 C18        17.5963   -46.4615    -3.4346 C.3        1          -0.1834
     21 C19        19.0441   -46.8000    -3.6805 C.2        1           0.4953
     22 O3         19.7197   -46.0949    -4.4102 O.co2      1          -0.7103
     23 O4         19.5399   -47.7794    -3.1496 O.co2      1          -0.7103
     24 O5         15.4418   -45.7115    -1.6907 O.3        1          -0.2449
     25 C20        14.0863   -45.7208    -1.6083 C.ar       1           0.0912
     26 C21        13.4689   -46.3799    -0.5358 C.ar       1          -0.1138
     27 C22        14.2816   -47.0475     0.4881 C.2        1           0.5192
     28 O6         14.6411   -46.4306     1.4823 O.co2      1          -0.6916
     29 O7         14.5998   -48.2210     0.3477 O.co2      1          -0.6456
     30 H1          9.4368   -48.6568    -1.5227 H          1           0.3659
     31 H2         12.2345   -49.2791    -1.0181 H          1           0.0696
     32 H3          9.8307   -50.9034    -0.9026 H          1           0.0829
     33 H4         11.4915   -51.3612    -0.4282 H          1           0.0765
     34 H5          9.6221   -52.5043     1.6463 H          1           0.1130
     35 H6          9.1090   -51.9443     3.9844 H          1           0.1162
     36 H7          9.4968   -49.6637     4.8249 H          1           0.1195
     37 H8         10.4000   -47.9362     3.3322 H          1           0.1263
     38 H9         11.1697   -46.5568     1.5748 H          1           0.1551
     39 H10        10.2214   -45.7684    -1.3663 H          1           0.1214
     40 H11        11.3268   -44.6126    -3.2253 H          1           0.1214
     41 H12        15.3316   -45.7224    -4.3395 H          1           0.0721
     42 H13        15.6821   -43.9871    -4.5514 H          1           0.1140
     43 H14        15.9542   -43.7440    -2.0894 H          1           0.0726
     44 H15        17.9345   -44.3344    -3.4734 H          1           0.0707
     45 H16        18.0385   -45.0660    -1.8541 H          1           0.0743
     46 H17        17.1598   -47.1997    -2.7618 H          1           0.0500
     47 H18        17.0558   -46.4680    -4.3810 H          1           0.0844
@<TRIPOS>BOND
     1    1    2 1
     2    1   30 1
     3    2   10 1
     4    2    3 1
     5    2   31 1
     6    3    4 1
     7    3   32 1
     8    3   33 1
     9    4    9 ar
    10    4    5 ar
    11    5    6 ar
    12    5   34 1
    13    6    7 ar
    14    6   35 1
    15    7    8 ar
    16    7   36 1
    17    8    9 ar
    18    8   37 1
    19    9   10 1
    20   10   11 2
    21   11   12 1
    22   11   38 1
    23   12   26 ar
    24   12   13 ar
    25   13   14 ar
    26   13   39 1
    27   14   15 ar
    28   14   40 1
    29   15   25 ar
    30   15   16 1
    31   16   17 1
    32   17   18 1
    33   17   41 1
    34   17   42 1
    35   18   19 1
    36   18   24 1
    37   18   43 1
    38   19   20 1
    39   19   44 1
    40   19   45 1
    41   20   21 1
    42   20   46 1
    43   20   47 1
    44   21   22 1
    45   21   23 2
    46   24   25 1
    47   25   26 ar
    48   26   27 1
    49   27   28 1
    50   27   29 2
