AVX38674_0, 3
##########                 Name:           AVX38674_0
##########          Protonation:                  100
##########               SMILES:   CN(Cc1ccc2c(c1C(=O)[O-])OCO2)C(=O)N[C@@H](c3ccccc3)C(=O)NCc4ccccc4
##########            Long Name:   1-phenyl-ethyl]carbamoyl-methyl-amino]methyl]-1,3-benzodioxole-4-carboxylate
##########          FlexRecCode: 1
##########               Number:                  785
##########   Ligand Source File: /raid1/people/rgc/Examples/sampl4/screening/ligands/build_1//sampl4-hivint-00000
##########           GlobalRank: 15
##########                 Rank:                    1
##########               Setnum:                  190
##########             Matchnum:                20099
##########                Cloud:                    1
##########        Electrostatic:           -26.049761
##########        Van der Waals:           -30.899893
##########  Ligand Polar Desolv:            23.311699
########## Ligand Apolar Desolv:            -2.575271
##########      Internal Energy:             0.000000
##########      Receptor Energy: 0.0
########## Receptor Desolvation:             0.000000
########## Receptor Hydrophobic:             0.000000
##########         Total Energy: -36.21
##########        Ligand Charge:            -1.000000
##########            Arbitrary:    +999.9990
##########     heavy atom count:   35
##########           pose count:    1
##########        Ligand Energy:             0.000000
# num electro vdwattr vdwrepu polsolv apolsol rdesolv rhydroe totalscore fullpol fullapo
#   1    0.32   -0.30    0.01   -0.11   -0.09    0.00    0.00      -0.15   -0.63   -0.51
#   2   -1.79   -0.46    0.02    1.68    0.19    0.00    0.00      -0.36   10.35    1.19
#   3    1.03   -0.69    0.10   -1.42   -0.08    0.00    0.00      -1.07   -5.43   -0.31
#   4   -0.51   -0.82    0.05    0.37   -0.12    0.00    0.00      -1.02    1.30   -0.41
#   5   -0.87   -0.77    0.05    0.37   -0.11    0.00    0.00      -1.33    1.38   -0.42
#   6   -0.78   -1.20    0.16    0.21   -0.18    0.00    0.00      -1.79    0.55   -0.47
#   7   -0.03   -1.41    0.14   -0.11   -0.15    0.00    0.00      -1.55   -0.25   -0.33
#   8   -1.58   -2.36    0.69    2.43    0.26    0.00    0.00      -0.55    4.79    0.52
#   9    1.08   -1.60    0.44   -1.39    0.01    0.00    0.00      -1.46   -2.97    0.02
#  10   -3.88   -1.30    0.18    3.94    0.15    0.00    0.00      -0.91    9.21    0.34
#  11    1.11   -1.32    0.19   -0.31   -0.13    0.00    0.00      -0.47   -0.79   -0.32
#  12   -1.93   -1.11    0.10    2.32   -0.15    0.00    0.00      -0.76    6.40   -0.41
#  13   12.26   -2.03    0.45   -7.65   -0.07    0.00    0.00       2.96  -18.33   -0.17
#  14  -22.16   -4.49    2.31   13.95   -0.16    0.00    0.00     -10.56   27.93   -0.33
#  15  -12.12   -1.78    0.42   11.90   -0.21    0.00    0.00      -1.79   31.27   -0.56
#  16    0.24   -0.39    0.02   -1.64   -0.26    0.00    0.00      -2.04  -11.96   -1.92
#  17   -0.10   -0.16    0.00    0.95    0.02    0.00    0.00       0.71   14.56    0.37
#  18    0.10   -0.78    0.08    1.64    0.33    0.00    0.00       1.38    8.39    1.69
#  19   -0.06   -0.28    0.01   -0.30   -0.04    0.00    0.00      -0.66   -2.05   -0.25
#  20   -0.25   -0.45    0.03   -0.72   -0.08    0.00    0.00      -1.47   -5.18   -0.60
#  21    0.25   -0.22    0.01    0.67    0.04    0.00    0.00       0.73    7.21    0.38
#  22    0.45   -0.93    0.23    0.84    0.41    0.00    0.00       1.01    4.67    2.29
#  23   -0.11   -0.48    0.07   -0.18   -0.08    0.00    0.00      -0.77   -1.05   -0.44
#  24    0.08   -0.54    0.05    0.10   -0.06    0.00    0.00      -0.37    0.64   -0.37
#  25    0.21   -1.28    0.38    0.17   -0.12    0.00    0.00      -0.65    0.62   -0.45
#  26    0.23   -0.93    0.07    0.19   -0.16    0.00    0.00      -0.60    0.56   -0.47
#  27    0.06   -0.82    0.11    0.11   -0.12    0.00    0.00      -0.67    0.41   -0.47
#  28    0.01   -0.41    0.04    0.07   -0.07    0.00    0.00      -0.36    0.47   -0.47
#  29    0.03   -0.23    0.00    0.04   -0.04    0.00    0.00      -0.19    0.50   -0.45
#  30    0.03   -0.73    0.07    0.22   -0.06    0.00    0.00      -0.47    1.14   -0.33
#  31    0.03   -0.65    0.08    0.17   -0.07    0.00    0.00      -0.44    1.04   -0.44
#  32    0.04   -0.81    0.14    0.15   -0.08    0.00    0.00      -0.57    0.83   -0.47
#  33    0.04   -0.86    0.11    0.15   -0.10    0.00    0.00      -0.67    0.71   -0.47
#  34    0.06   -1.65    0.50    0.22   -0.13    0.00    0.00      -0.99    0.84   -0.47
#  35    0.05   -1.73    0.60    0.27   -0.12    0.00    0.00      -0.92    1.04   -0.45
#  36    0.14   -0.06    0.00   -0.04   -0.01    0.00    0.00       0.03   -0.81   -0.28
#  37    0.29   -0.11    0.01   -0.11   -0.03    0.00    0.00       0.05   -0.93   -0.22
#  38    0.47   -0.13    0.01   -0.10   -0.03    0.00    0.00       0.22   -0.88   -0.28
#  39    0.21   -0.25    0.06   -0.17   -0.04    0.00    0.00      -0.19   -0.88   -0.23
#  40    0.86   -0.53    0.28   -0.49   -0.07    0.00    0.00       0.05   -1.82   -0.24
#  41    0.56   -0.12    0.00   -0.27   -0.02    0.00    0.00       0.15   -2.59   -0.21
#  42    0.73   -0.34    0.08   -0.70   -0.09    0.00    0.00      -0.30   -2.28   -0.28
#  43    0.38   -0.88    0.63   -0.92   -0.11    0.00    0.00      -0.91   -2.36   -0.28
#  44    0.29   -0.55    0.22   -0.63   -0.11    0.00    0.00      -0.78   -1.64   -0.28
#  45   -0.04   -0.03    0.00   -0.96    0.08    0.00    0.00      -0.95   -4.21    0.37
#  46   -0.03   -0.03    0.00   -0.03   -0.01    0.00    0.00      -0.10   -1.25   -0.26
#  47   -0.28   -0.02    0.00   -0.35    0.09    0.00    0.00      -0.56   -2.25    0.55
#  48   -0.04   -0.05    0.00   -0.02   -0.01    0.00    0.00      -0.12   -0.50   -0.28
#  49   -0.06   -0.33    0.10   -0.11   -0.06    0.00    0.00      -0.46   -0.49   -0.28
#  50   -0.43   -0.85    0.97   -0.19   -0.09    0.00    0.00      -0.60   -0.59   -0.28
#  51   -0.32   -0.29    0.04   -0.12   -0.10    0.00    0.00      -0.79   -0.35   -0.28
#  52   -0.03   -0.32    0.09   -0.05   -0.08    0.00    0.00      -0.39   -0.20   -0.28
#  53    0.00   -0.08    0.01   -0.02   -0.02    0.00    0.00      -0.11   -0.23   -0.28
#  54   -0.03   -0.02    0.00   -0.01   -0.01    0.00    0.00      -0.06   -0.47   -0.28
#  55   -0.04   -0.08    0.00   -0.07   -0.02    0.00    0.00      -0.20   -0.92   -0.27
#  56   -0.05   -0.14    0.02   -0.09   -0.04    0.00    0.00      -0.29   -0.68   -0.28
#  57   -0.03   -0.11    0.00   -0.05   -0.03    0.00    0.00      -0.22   -0.58   -0.28
#  58   -0.08   -0.59    0.50   -0.21   -0.08    0.00    0.00      -0.46   -0.73   -0.28
#  59   -0.09   -0.70    0.75   -0.29   -0.08    0.00    0.00      -0.42   -1.02   -0.28

@<TRIPOS>MOLECULE
       AVX38674_0       100
   59    62     0     0     0



@<TRIPOS>ATOM
      1 C1         10.7184   -48.6663    -0.0907 C.3        1           0.0765
      2 N1         10.6927   -48.2294     1.3073 N.am       1          -0.6274
      3 C2         11.0770   -46.8588     1.6537 C.3        1           0.1939
      4 C3         11.4528   -46.1105     0.4007 C.ar       1          -0.0518
      5 C4         10.4931   -45.4134    -0.2991 C.ar       1          -0.1211
      6 C5         10.8295   -44.7224    -1.4524 C.ar       1          -0.1017
      7 C6         12.1337   -44.7249    -1.9133 C.ar       1          -0.0028
      8 O1         12.7258   -44.1431    -2.9944 O.3        1          -0.3193
      9 C7         13.9584   -44.8465    -3.2108 C.3        1           0.2047
     10 O2         14.2928   -45.2625    -1.8782 O.3        1          -0.2769
     11 C8         13.1167   -45.4249    -1.2167 C.ar       1           0.0773
     12 C9         12.7785   -46.1191    -0.0489 C.ar       1          -0.1202
     13 C10        13.8091   -46.8576     0.6986 C.2        1           0.5221
     14 O3         14.4389   -46.2992     1.5864 O.co2      1          -0.6799
     15 O4         14.0360   -48.0299     0.4320 O.co2      1          -0.6711
     16 C11        10.3154   -49.0884     2.2750 C.2        1           0.7082
     17 O5          9.9964   -50.2259     1.9876 O.2        1          -0.5758
     18 N2         10.2919   -48.6864     3.5611 N.am       1          -0.7312
     19 C12         9.8819   -49.6200     4.6130 C.3        1           0.1901
     20 C13         8.6735   -49.0725     5.3276 C.2        1           0.5213
     21 O6          8.1732   -49.6972     6.2390 O.2        1          -0.5294
     22 N3          8.1485   -47.8889     4.9539 N.am       1          -0.7189
     23 C14         6.9736   -47.3567     5.6487 C.3        1           0.1621
     24 C15         6.1626   -46.5182     4.6944 C.ar       1          -0.1100
     25 C16         6.4215   -45.1661     4.5709 C.ar       1          -0.0996
     26 C17         5.6777   -44.3970     3.6953 C.ar       1          -0.1218
     27 C18         4.6753   -44.9804     2.9433 C.ar       1          -0.1119
     28 C19         4.4170   -46.3329     3.0661 C.ar       1          -0.1221
     29 C20         5.1637   -47.1026     3.9384 C.ar       1          -0.0985
     30 C21        11.0102   -49.7958     5.5964 C.ar       1          -0.0955
     31 C22        11.9527   -50.7873     5.3970 C.ar       1          -0.0952
     32 C23        12.9877   -50.9485     6.2991 C.ar       1          -0.1184
     33 C24        13.0805   -50.1185     7.4002 C.ar       1          -0.1151
     34 C25        12.1386   -49.1261     7.5991 C.ar       1          -0.1170
     35 C26        11.1060   -48.9620     6.6948 C.ar       1          -0.1014
     36 H1         10.4031   -49.7079    -0.1518 H          1           0.0574
     37 H2         10.0406   -48.0465    -0.6776 H          1           0.0603
     38 H3         11.7308   -48.5697    -0.4830 H          1           0.0776
     39 H4         10.2390   -46.3580     2.1385 H          1           0.1139
     40 H5         11.9292   -46.8810     2.3330 H          1           0.1067
     41 H6          9.4721   -45.4054     0.0528 H          1           0.1243
     42 H7         10.0692   -44.1794    -1.9943 H          1           0.1224
     43 H8         13.8073   -45.7074    -3.8621 H          1           0.1233
     44 H9         14.7214   -44.1815    -3.6152 H          1           0.0744
     45 H10        10.5464   -47.7789     3.7904 H          1           0.4044
     46 H11         9.6349   -50.5837     4.1674 H          1           0.1230
     47 H12         8.5484   -47.3893     4.2251 H          1           0.4046
     48 H13         6.3635   -48.1820     6.0157 H          1           0.0781
     49 H14         7.2958   -46.7415     6.4889 H          1           0.0789
     50 H15         7.2047   -44.7103     5.1584 H          1           0.1252
     51 H16         5.8794   -43.3404     3.5994 H          1           0.1243
     52 H17         4.0937   -44.3795     2.2598 H          1           0.1227
     53 H18         3.6337   -46.7886     2.4787 H          1           0.1237
     54 H19         4.9644   -48.1600     4.0317 H          1           0.1241
     55 H20        11.8802   -51.4362     4.5367 H          1           0.1187
     56 H21        13.7236   -51.7236     6.1437 H          1           0.1218
     57 H22        13.8886   -50.2443     8.1055 H          1           0.1208
     58 H23        12.2109   -48.4775     8.4597 H          1           0.1232
     59 H24        10.3723   -48.1847     6.8481 H          1           0.1241
@<TRIPOS>BOND
     1    1    2 1
     2    1   36 1
     3    1   37 1
     4    1   38 1
     5    2    3 1
     6    2   16 am
     7    3    4 1
     8    3   39 1
     9    3   40 1
    10    4   12 ar
    11    4    5 ar
    12    5    6 ar
    13    5   41 1
    14    6    7 ar
    15    6   42 1
    16    7   11 ar
    17    7    8 1
    18    8    9 1
    19    9   10 1
    20    9   43 1
    21    9   44 1
    22   10   11 1
    23   11   12 ar
    24   12   13 1
    25   13   14 1
    26   13   15 2
    27   16   17 2
    28   16   18 am
    29   18   19 1
    30   18   45 1
    31   19   20 1
    32   19   30 1
    33   19   46 1
    34   20   21 2
    35   20   22 am
    36   22   23 1
    37   22   47 1
    38   23   24 1
    39   23   48 1
    40   23   49 1
    41   24   29 ar
    42   24   25 ar
    43   25   26 ar
    44   25   50 1
    45   26   27 ar
    46   26   51 1
    47   27   28 ar
    48   27   52 1
    49   28   29 ar
    50   28   53 1
    51   29   54 1
    52   30   35 ar
    53   30   31 ar
    54   31   32 ar
    55   31   55 1
    56   32   33 ar
    57   32   56 1
    58   33   34 ar
    59   33   57 1
    60   34   35 ar
    61   34   58 1
    62   35   59 1
