AVX38779_0, 3
##########                 Name:           AVX38779_0
##########          Protonation:                   61
##########               SMILES:   C@H](C)NC(=O)c1ccccc1C[NH+](CC=C)Cc2ccc3c(c2C(=O)[O-])OC[C@H](O3)CCC(=O)[O-]
##########            Long Name:   ]methyl]-2-(3-oxido-3-oxo-propyl)-2,3-dihydro-1,4-benzodioxine-5-carboxylate
##########          FlexRecCode: 1
##########               Number:                  421
##########   Ligand Source File: /raid1/people/rgc/Examples/sampl4/screening/ligands/build_1//sampl4-hivint-00000
##########           GlobalRank: 39
##########                 Rank:                    1
##########               Setnum:                   97
##########             Matchnum:                  906
##########                Cloud:                    1
##########        Electrostatic:           -31.350719
##########        Van der Waals:           -25.201418
##########  Ligand Polar Desolv:            29.019735
########## Ligand Apolar Desolv:            -3.573664
##########      Internal Energy:             0.000000
##########      Receptor Energy: 0.0
########## Receptor Desolvation:             0.000000
########## Receptor Hydrophobic:             0.000000
##########         Total Energy: -31.11
##########        Ligand Charge:            -1.000000
##########            Arbitrary:    +999.9990
##########     heavy atom count:   37
##########           pose count:    1
##########        Ligand Energy:             0.000000
# num electro vdwattr vdwrepu polsolv apolsol rdesolv rhydroe totalscore fullpol fullapo
#   1   -0.01   -0.15    0.01    0.15   -0.02    0.00    0.00      -0.02    1.65   -0.20
#   2   -0.01   -0.12    0.00    0.05   -0.02    0.00    0.00      -0.09    0.70   -0.24
#   3    0.01   -0.33    0.02   -0.18   -0.05    0.00    0.00      -0.53   -0.98   -0.25
#   4   -0.01   -0.66    0.14    0.12   -0.04    0.00    0.00      -0.45    0.53   -0.19
#   5   -0.04   -0.37    0.02    0.79    0.27    0.00    0.00       0.67    5.39    1.82
#   6    0.07   -1.05    0.34   -0.95   -0.14    0.00    0.00      -1.73   -4.39   -0.63
#   7   -0.78   -3.49    3.57    1.30    0.07    0.00    0.00       0.68    4.01    0.23
#   8   -0.03   -0.72    0.16    0.16   -0.06    0.00    0.00      -0.49    0.88   -0.30
#   9   -0.02   -0.40    0.04    0.14   -0.06    0.00    0.00      -0.30    0.99   -0.44
#  10   -0.08   -0.38    0.04    0.14   -0.06    0.00    0.00      -0.35    1.00   -0.47
#  11   -0.16   -1.03    0.52    0.08   -0.08    0.00    0.00      -0.68    0.48   -0.47
#  12   -0.39   -1.16    0.45    0.01   -0.08    0.00    0.00      -1.18    0.05   -0.39
#  13   -0.21   -0.77    0.13    0.04   -0.05    0.00    0.00      -0.87    0.17   -0.23
#  14    0.22   -0.55    0.13    0.03   -0.06    0.00    0.00      -0.22    0.15   -0.28
#  15   -1.98   -0.41    0.01   -0.03    0.01    0.00    0.00      -2.39   -0.14    0.07
#  16    2.97   -0.01    0.00   -0.21    0.02    0.00    0.00       2.78   -2.51    0.29
#  17    0.05   -0.29    0.01    0.01   -0.06    0.00    0.00      -0.28    0.09   -0.37
#  18   -0.07   -1.24    0.34   -0.02   -0.08    0.00    0.00      -1.07   -0.10   -0.35
#  19   -0.01   -0.97    0.23    0.13   -0.07    0.00    0.00      -0.69    0.67   -0.34
#  20    0.39   -0.47    0.02    0.00   -0.07    0.00    0.00      -0.13    0.00   -0.28
#  21   -1.55   -0.95    0.07    0.12   -0.10    0.00    0.00      -2.41    0.35   -0.31
#  22   -1.03   -1.35    0.18   -0.03   -0.16    0.00    0.00      -2.39   -0.08   -0.40
#  23   -0.77   -2.38    0.69    0.49   -0.22    0.00    0.00      -2.19    1.04   -0.46
#  24    0.55   -1.82    0.29    0.06   -0.13    0.00    0.00      -1.05    0.14   -0.30
#  25   -1.29   -1.92    0.42    3.34    0.30    0.00    0.00       0.86    6.81    0.62
#  26    0.41   -0.95    0.08   -0.87   -0.06    0.00    0.00      -1.38   -1.74   -0.12
#  27   -0.30   -1.38    1.17    0.54   -0.07    0.00    0.00      -0.04    1.48   -0.18
#  28   -1.38   -0.70    0.10    1.06   -0.07    0.00    0.00      -0.99    3.63   -0.25
#  29    2.33   -0.94    0.17   -4.15   -0.04    0.00    0.00      -2.65  -15.82   -0.16
#  30  -10.57   -2.33    3.09    8.65   -0.12    0.00    0.00      -1.28   28.86   -0.41
#  31    1.42   -1.16    0.65    6.45   -0.09    0.00    0.00       7.27   30.71   -0.43
#  32    0.33   -1.47    0.37   -0.24   -0.06    0.00    0.00      -1.06   -0.50   -0.12
#  33   -6.90   -2.33    1.06    3.72    0.12    0.00    0.00      -4.32    8.20    0.27
#  34    1.61   -1.80    0.58   -0.08   -0.13    0.00    0.00       0.19   -0.18   -0.30
#  35   -2.46   -1.51    0.31    1.34   -0.16    0.00    0.00      -2.48    3.38   -0.40
#  36   14.18   -2.64    0.74   -5.11   -0.07    0.00    0.00       7.12  -11.43   -0.15
#  37  -21.42   -5.30    3.53    6.01   -0.12    0.00    0.00     -17.30   11.32   -0.22
#  38  -15.34   -2.93    1.24   10.44   -0.25    0.00    0.00      -6.85   24.26   -0.59
#  39    0.00   -0.02    0.00   -0.01    0.00    0.00    0.00      -0.03   -0.29   -0.26
#  40    0.00   -0.11    0.03   -0.02   -0.03    0.00    0.00      -0.12   -0.20   -0.28
#  41    0.01   -0.04    0.00   -0.03   -0.01    0.00    0.00      -0.07   -0.67   -0.28
#  42    0.00   -0.03    0.00   -0.01   -0.01    0.00    0.00      -0.04   -0.41   -0.28
#  43    0.00   -0.02    0.00   -0.01    0.00    0.00    0.00      -0.03   -0.47   -0.28
#  44    0.01   -0.19    0.04   -0.08   -0.05    0.00    0.00      -0.27   -0.44   -0.26
#  45    0.00   -0.59    0.53   -0.07   -0.08    0.00    0.00      -0.22   -0.24   -0.28
#  46    0.01   -0.09    0.01   -0.02   -0.02    0.00    0.00      -0.11   -0.21   -0.28
#  47    0.01   -0.18    0.02   -0.04   -0.05    0.00    0.00      -0.23   -0.21   -0.28
#  48    0.02    0.00    0.00   -0.07    0.01    0.00    0.00      -0.04   -2.74    0.45
#  49    0.02   -0.05    0.00   -0.05   -0.01    0.00    0.00      -0.10   -0.97   -0.22
#  50    0.04   -0.04    0.00   -0.03   -0.01    0.00    0.00      -0.03   -0.81   -0.28
#  51    0.08   -0.29    0.21   -0.04   -0.04    0.00    0.00      -0.07   -0.27   -0.28
#  52    0.64   -0.31    0.13    0.14   -0.05    0.00    0.00       0.55    0.83   -0.28
#  53    0.78   -0.36    0.30    0.48   -0.06    0.00    0.00       1.13    2.06   -0.27
#  54    0.49   -0.13    0.02    0.05   -0.02    0.00    0.00       0.41    0.38   -0.15
#  55    0.14   -0.10    0.01    0.03   -0.02    0.00    0.00       0.05    0.27   -0.20
#  56    0.15   -0.04    0.00    0.08   -0.01    0.00    0.00       0.18    2.20   -0.28
#  57    0.16   -0.77    0.88    0.04   -0.06    0.00    0.00       0.25    0.15   -0.22
#  58    0.00   -0.43    0.26   -0.08   -0.06    0.00    0.00      -0.31   -0.39   -0.28
#  59   -0.01   -0.06    0.00   -0.02   -0.01    0.00    0.00      -0.10   -0.36   -0.27
#  60    0.98   -0.11    0.00   -0.04   -0.02    0.00    0.00       0.81   -0.35   -0.14
#  61    0.99   -0.24    0.03    0.37   -0.06    0.00    0.00       1.08    1.58   -0.27
#  62    0.92   -0.34    0.13    0.24   -0.08    0.00    0.00       0.87    0.80   -0.28
#  63    0.08   -1.28    2.69   -0.68   -0.14    0.00    0.00       0.68   -1.39   -0.28
#  64    0.49   -0.31    0.03   -0.69   -0.11    0.00    0.00      -0.58   -1.79   -0.28
#  65    0.25   -1.20    5.46   -0.59   -0.08    0.00    0.00       3.84   -2.07   -0.28
#  66   -0.22   -0.54    0.39   -0.35   -0.08    0.00    0.00      -0.80   -1.19   -0.28
#  67    0.99   -0.37    0.14   -0.56   -0.07    0.00    0.00       0.14   -2.23   -0.27
#  68    0.26   -0.18    0.03   -0.42   -0.05    0.00    0.00      -0.37   -2.42   -0.28
#  69    1.70   -0.50    0.15   -0.59   -0.11    0.00    0.00       0.64   -1.44   -0.28
#  70    1.95   -0.74    0.42   -1.44   -0.14    0.00    0.00       0.05   -2.81   -0.28

@<TRIPOS>MOLECULE
       AVX38779_0        61
   70    72     0     0     0



@<TRIPOS>ATOM
      1 C1          3.4432   -48.7613     1.4814 C.3        1          -0.1558
      2 C2          4.8081   -49.4199     1.2718 C.3        1          -0.1309
      3 C3          5.2584   -49.2109    -0.1755 C.3        1           0.1401
      4 C4          4.2368   -49.8421    -1.1236 C.3        1          -0.1614
      5 N1          6.5654   -49.8415    -0.3761 N.am       1          -0.7087
      6 C5          7.4270   -49.3339    -1.2797 C.2        1           0.5743
      7 O1          7.1194   -48.3528    -1.9281 O.2        1          -0.5617
      8 C6          8.7461   -49.9701    -1.4820 C.ar       1          -0.0767
      9 C7          8.8263   -51.2991    -1.9018 C.ar       1          -0.0702
     10 C8         10.0601   -51.8866    -2.0892 C.ar       1          -0.1007
     11 C9         11.2168   -51.1618    -1.8617 C.ar       1          -0.0901
     12 C10        11.1442   -49.8445    -1.4456 C.ar       1          -0.0996
     13 C11         9.9163   -49.2430    -1.2599 C.ar       1          -0.0575
     14 C12         9.8392   -47.8062    -0.8122 C.3        1           0.0442
     15 N2         10.7956   -47.5816     0.2800 N.4        1          -0.3539
     16 H1         11.6521   -48.0777     0.0844 H          1           0.4383
     17 C13        10.2228   -48.0719     1.5408 C.3        1           0.0230
     18 C14        11.3285   -48.3029     2.5384 C.2        1          -0.1876
     19 C15        11.5205   -49.4985     3.0383 C.2        1          -0.1347
     20 C16        11.0775   -46.1447     0.3963 C.3        1           0.0473
     21 C17        12.0818   -45.7432    -0.6531 C.ar       1          -0.1299
     22 C18        11.6526   -45.3185    -1.8908 C.ar       1          -0.1185
     23 C19        12.5694   -44.9469    -2.8606 C.ar       1          -0.1212
     24 C20        13.9285   -44.9977    -2.5967 C.ar       1           0.0629
     25 O2         14.8159   -44.6252    -3.5595 O.3        1          -0.2959
     26 C21        16.1699   -45.0554    -3.3865 C.3        1           0.0501
     27 C22        16.2717   -46.5620    -3.6322 C.3        1          -0.0836
     28 C23        17.7218   -47.0124    -3.4451 C.3        1          -0.1800
     29 C24        18.6048   -46.2829    -4.4244 C.2        1           0.4904
     30 O3         19.1100   -45.2178    -4.1136 O.co2      1          -0.6991
     31 O4         18.8140   -46.7580    -5.5277 O.co2      1          -0.7065
     32 C25        16.5722   -44.7350    -1.9420 C.3        1           0.0178
     33 O5         15.7069   -45.4824    -1.0811 O.3        1          -0.2584
     34 C26        14.3783   -45.4251    -1.3526 C.ar       1           0.0871
     35 C27        13.4509   -45.7964    -0.3686 C.ar       1          -0.1235
     36 C28        13.9149   -46.2441     0.9544 C.2        1           0.5218
     37 O6         14.0738   -45.4309     1.8544 O.co2      1          -0.6917
     38 O7         14.1417   -47.4296     1.1541 O.co2      1          -0.6351
     39 H2          3.1224   -48.9102     2.5125 H          1           0.0600
     40 H3          3.5192   -47.6936     1.2750 H          1           0.0577
     41 H4          2.7152   -49.2109     0.8060 H          1           0.0564
     42 H5          5.5360   -48.9702     1.9472 H          1           0.0660
     43 H6          4.7321   -50.4875     1.4781 H          1           0.0780
     44 H7          5.3345   -48.1434    -0.3817 H          1           0.0917
     45 H8          4.5577   -49.6931    -2.1546 H          1           0.0658
     46 H9          4.1607   -50.9096    -0.9174 H          1           0.0598
     47 H10         3.2644   -49.3728    -0.9745 H          1           0.0557
     48 H11         6.8108   -50.6245     0.1414 H          1           0.4010
     49 H12         7.9244   -51.8660    -2.0790 H          1           0.1224
     50 H13        10.1236   -52.9146    -2.4139 H          1           0.1277
     51 H14        12.1805   -51.6266    -2.0093 H          1           0.1274
     52 H15        12.0507   -49.2843    -1.2694 H          1           0.1273
     53 H16        10.0830   -47.1513    -1.6489 H          1           0.1132
     54 H17         8.8302   -47.5883    -0.4621 H          1           0.1442
     55 H18         9.5262   -47.3322     1.9353 H          1           0.1242
     56 H19         9.6949   -49.0083     1.3603 H          1           0.1203
     57 H20        11.9626   -47.4828     2.8414 H          1           0.1307
     58 H21        12.3128   -49.6641     3.7532 H          1           0.1112
     59 H22        10.8866   -50.3186     2.7354 H          1           0.1029
     60 H23        10.1560   -45.5807     0.2521 H          1           0.1682
     61 H24        11.4819   -45.9328     1.3862 H          1           0.1022
     62 H25        10.5954   -45.2752    -2.1068 H          1           0.1269
     63 H26        12.2225   -44.6160    -3.8283 H          1           0.1354
     64 H27        16.8191   -44.5225    -4.0811 H          1           0.0807
     65 H28        15.6330   -47.0897    -2.9238 H          1           0.0864
     66 H29        15.9497   -46.7868    -4.6490 H          1           0.0744
     67 H30        18.0437   -46.7876    -2.4282 H          1           0.0635
     68 H31        17.7943   -48.0859    -3.6202 H          1           0.0556
     69 H32        17.6079   -45.0296    -1.7722 H          1           0.0756
     70 H33        16.4524   -43.6685    -1.7521 H          1           0.1230
@<TRIPOS>BOND
     1    1    2 1
     2    1   39 1
     3    1   40 1
     4    1   41 1
     5    2    3 1
     6    2   42 1
     7    2   43 1
     8    3    4 1
     9    3    5 1
    10    3   44 1
    11    4   45 1
    12    4   46 1
    13    4   47 1
    14    5    6 am
    15    5   48 1
    16    6    7 2
    17    6    8 1
    18    8   13 ar
    19    8    9 ar
    20    9   10 ar
    21    9   49 1
    22   10   11 ar
    23   10   50 1
    24   11   12 ar
    25   11   51 1
    26   12   13 ar
    27   12   52 1
    28   13   14 1
    29   14   15 1
    30   14   53 1
    31   14   54 1
    32   15   16 1
    33   15   17 1
    34   15   20 1
    35   17   18 1
    36   17   55 1
    37   17   56 1
    38   18   19 2
    39   18   57 1
    40   19   58 1
    41   19   59 1
    42   20   21 1
    43   20   60 1
    44   20   61 1
    45   21   35 ar
    46   21   22 ar
    47   22   23 ar
    48   22   62 1
    49   23   24 ar
    50   23   63 1
    51   24   34 ar
    52   24   25 1
    53   25   26 1
    54   26   27 1
    55   26   32 1
    56   26   64 1
    57   27   28 1
    58   27   65 1
    59   27   66 1
    60   28   29 1
    61   28   67 1
    62   28   68 1
    63   29   30 1
    64   29   31 2
    65   32   33 1
    66   32   69 1
    67   32   70 1
    68   33   34 1
    69   34   35 ar
    70   35   36 1
    71   36   37 1
    72   36   38 2
