AVX38753_3, 3
##########                 Name:           AVX38753_0
##########          Protonation:                   61
##########               SMILES:   C[NH+](Cc1ccccc1C(=O)NCc2ccccc2)Cc3ccc4c(c3C(=O)[O-])OC[C@@H](O4)CCC(=O)[O-]
##########            Long Name:   ]methyl]-2-(3-oxido-3-oxo-propyl)-2,3-dihydro-1,4-benzodioxine-5-carboxylate
##########          FlexRecCode: 1
##########               Number:                  508
##########   Ligand Source File: /raid1/people/rgc/Examples/sampl4/screening/ligands/build_1//sampl4-hivint-00000
##########           GlobalRank: 114
##########                 Rank:                    1
##########               Setnum:                   27
##########             Matchnum:                11281
##########                Cloud:                    1
##########        Electrostatic:           -28.787466
##########        Van der Waals:           -21.746876
##########  Ligand Polar Desolv:            31.426609
########## Ligand Apolar Desolv:            -2.528324
##########      Internal Energy:             0.000000
##########      Receptor Energy: 0.0
########## Receptor Desolvation:             0.000000
########## Receptor Hydrophobic:             0.000000
##########         Total Energy: -21.64
##########        Ligand Charge:            -1.000000
##########            Arbitrary:    +999.9990
##########     heavy atom count:   40
##########           pose count:    1
##########        Ligand Energy:             0.000000
# num electro vdwattr vdwrepu polsolv apolsol rdesolv rhydroe totalscore fullpol fullapo
#   1  -14.39   -1.98    1.01   12.74   -0.18    0.00    0.00      -2.80   29.12   -0.41
#   2   12.79   -2.06    0.69   -6.75   -0.07    0.00    0.00       4.60  -16.31   -0.16
#   3  -25.99   -3.81    1.85   15.17   -0.21    0.00    0.00     -12.98   31.18   -0.43
#   4   -2.62   -0.77    0.09    1.37   -0.09    0.00    0.00      -2.01    3.86   -0.25
#   5   -0.83   -0.56    0.04    0.41   -0.05    0.00    0.00      -0.99    1.45   -0.18
#   6    0.52   -0.66    0.08   -0.56   -0.04    0.00    0.00      -0.66   -1.85   -0.12
#   7    0.12   -0.52    0.03   -0.22   -0.04    0.00    0.00      -0.62   -0.74   -0.12
#   8   -1.02   -0.54    0.03    2.09    0.06    0.00    0.00       0.63    8.81    0.27
#   9    0.23   -0.45    0.02   -0.10   -0.05    0.00    0.00      -0.36   -0.63   -0.30
#  10   -0.11   -0.32    0.01    0.35   -0.04    0.00    0.00      -0.10    2.81   -0.30
#  11    0.63   -0.64    0.08   -2.64   -0.03    0.00    0.00      -2.60  -13.12   -0.15
#  12   -0.49   -0.98    0.50    5.57   -0.13    0.00    0.00       4.48   26.18   -0.59
#  13   -0.86   -1.06    0.18    3.83   -0.07    0.00    0.00       2.02   14.55   -0.25
#  14   -0.04   -0.18    0.00    0.03   -0.01    0.00    0.00      -0.20    0.48   -0.23
#  15    0.00   -0.06    0.00   -0.01   -0.01    0.00    0.00      -0.08   -0.15   -0.28
#  16    0.04   -0.07    0.00    0.00    0.00    0.00    0.00      -0.02    0.13    0.07
#  17   -0.06    0.00    0.00   -0.07    0.01    0.00    0.00      -0.13   -2.90    0.30
#  18   -0.01   -0.06    0.00    0.00   -0.01    0.00    0.00      -0.07    0.14   -0.37
#  19    0.06   -0.12    0.00    0.03   -0.02    0.00    0.00      -0.05    0.61   -0.35
#  20    0.08   -0.36    0.02    0.10   -0.04    0.00    0.00      -0.21    0.80   -0.34
#  21    0.00   -0.04    0.00    0.00   -0.01    0.00    0.00      -0.04    0.08   -0.28
#  22    0.00   -0.15    0.00   -0.01   -0.02    0.00    0.00      -0.17   -0.20   -0.31
#  23    0.00   -0.24    0.02   -0.06   -0.03    0.00    0.00      -0.31   -0.64   -0.39
#  24   -0.01   -0.67    0.26   -0.07   -0.07    0.00    0.00      -0.57   -0.50   -0.47
#  25   -0.01   -1.20    0.48   -0.06   -0.11    0.00    0.00      -0.90   -0.24   -0.47
#  26   -0.01   -0.87    0.13    0.04   -0.10    0.00    0.00      -0.81    0.18   -0.44
#  27   -0.01   -0.28    0.01    0.06   -0.05    0.00    0.00      -0.26    0.53   -0.40
#  28    0.03   -0.19    0.01   -0.39   -0.05    0.00    0.00      -0.59   -5.09   -0.63
#  29   -0.03   -0.07    0.00    0.22    0.01    0.00    0.00       0.13    7.23    0.22
#  30   -0.04   -0.31    0.01    0.97    0.29    0.00    0.00       0.92    7.87    2.32
#  31    0.01   -0.12    0.00   -0.24   -0.03    0.00    0.00      -0.37   -3.20   -0.44
#  32   -0.01   -0.43    0.06    0.22   -0.05    0.00    0.00      -0.21    1.69   -0.37
#  33   -0.02   -0.52    0.09    0.20   -0.06    0.00    0.00      -0.32    1.42   -0.46
#  34   -0.04   -0.68    0.19    0.18   -0.07    0.00    0.00      -0.42    1.16   -0.47
#  35   -0.11   -1.15    0.69    0.20   -0.10    0.00    0.00      -0.47    0.93   -0.47
#  36   -0.55   -1.45    0.80    0.30   -0.11    0.00    0.00      -1.00    1.25   -0.47
#  37   -0.09   -0.70    0.19    0.30   -0.08    0.00    0.00      -0.38    1.69   -0.46
#  38    0.00   -0.27    0.01    0.02   -0.04    0.00    0.00      -0.28    0.22   -0.39
#  39   -0.02   -0.70    0.07    0.28   -0.08    0.00    0.00      -0.45    1.50   -0.46
#  40    0.16   -0.71    0.07    0.03   -0.06    0.00    0.00      -0.51    0.14   -0.30
#  41   -2.33   -1.11    0.17    2.33    0.19    0.00    0.00      -0.76    7.57    0.62
#  42    0.59   -0.52    0.50   -0.55   -0.07    0.00    0.00      -0.06   -2.27   -0.27
#  43    0.78   -0.20    0.01   -0.51   -0.06    0.00    0.00       0.02   -2.44   -0.28
#  44    0.81   -0.20    0.02   -0.47   -0.06    0.00    0.00       0.09   -2.14   -0.28
#  45    0.54   -0.15    0.01   -0.20   -0.04    0.00    0.00       0.17   -1.30   -0.28
#  46    1.23   -0.44    0.31   -0.53   -0.08    0.00    0.00       0.49   -1.79   -0.28
#  47    0.44   -0.18    0.02   -0.69   -0.07    0.00    0.00      -0.48   -2.94   -0.28
#  48    0.44   -0.17    0.01   -0.25   -0.05    0.00    0.00      -0.01   -1.51   -0.28
#  49    0.01   -0.02    0.00    0.03   -0.01    0.00    0.00       0.00    1.14   -0.27
#  50   -0.02   -0.01    0.00   -0.01    0.00    0.00    0.00      -0.04   -0.64   -0.15
#  51   -0.02   -0.01    0.00    0.01    0.00    0.00    0.00      -0.02    0.93   -0.20
#  52   -0.04   -0.02    0.00    0.05   -0.01    0.00    0.00      -0.02    2.23   -0.28
#  53   -0.04   -0.01    0.00   -0.01    0.00    0.00    0.00      -0.06   -0.56   -0.22
#  54   -0.06   -0.14    0.02   -0.02   -0.03    0.00    0.00      -0.23   -0.15   -0.27
#  55   -0.07   -0.07    0.00   -0.04   -0.02    0.00    0.00      -0.20   -0.51   -0.28
#  56   -0.01   -0.01    0.00    0.00    0.00    0.00    0.00      -0.01    0.02   -0.14
#  57   -0.01   -0.01    0.00    0.02    0.00    0.00    0.00       0.00    2.31   -0.27
#  58    0.00   -0.03    0.00    0.07   -0.01    0.00    0.00       0.03    2.52   -0.28
#  59    0.02   -0.14    0.04    0.19   -0.03    0.00    0.00       0.07    1.51   -0.28
#  60    0.02   -0.43    0.20    0.15   -0.07    0.00    0.00      -0.13    0.58   -0.28
#  61    0.01   -0.41    0.19   -0.06   -0.05    0.00    0.00      -0.33   -0.26   -0.22
#  62    0.01   -0.01    0.00   -0.40    0.05    0.00    0.00      -0.35   -3.35    0.43
#  63    0.01   -0.02    0.00    0.00    0.00    0.00    0.00      -0.02   -0.17   -0.28
#  64    0.01   -0.02    0.00   -0.01    0.00    0.00    0.00      -0.02   -0.68   -0.28
#  65    0.02   -0.08    0.01   -0.12   -0.02    0.00    0.00      -0.19   -1.46   -0.28
#  66    0.05   -0.08    0.00   -0.10   -0.02    0.00    0.00      -0.15   -1.10   -0.28
#  67    0.43   -0.16    0.02   -0.14   -0.04    0.00    0.00       0.10   -0.90   -0.28
#  68    1.02   -0.55    0.43   -0.35   -0.08    0.00    0.00       0.46   -1.20   -0.28
#  69    0.09   -0.08    0.00   -0.15   -0.03    0.00    0.00      -0.17   -1.57   -0.28
#  70   -0.03   -0.03    0.00    0.00   -0.01    0.00    0.00      -0.07    0.07   -0.28
#  71    0.02   -0.27    0.06   -0.35   -0.06    0.00    0.00      -0.59   -1.78   -0.28

@<TRIPOS>MOLECULE
       AVX38753_0        61
   71    74     0     0     0



@<TRIPOS>ATOM
      1 O1         14.4555   -45.1792    -1.1510 O.co2      1          -0.7002
      2 C1         14.2274   -45.9841    -0.2641 C.2        1           0.4906
      3 O2         14.8316   -45.9142     0.7926 O.co2      1          -0.7067
      4 C2         13.1942   -47.0614    -0.4715 C.3        1          -0.1800
      5 C3         11.8337   -46.4173    -0.7450 C.3        1          -0.0816
      6 C4         11.4317   -45.5483     0.4484 C.3        1           0.0501
      7 C5         10.0457   -44.9391     0.2054 C.3        1           0.0207
      8 O3          9.1337   -46.0215    -0.0060 O.3        1          -0.2605
      9 C6          9.1836   -47.0443     0.8850 C.ar       1           0.0914
     10 C7          8.1066   -47.9374     0.9795 C.ar       1          -0.0919
     11 C8          6.9258   -47.7665     0.1178 C.2        1           0.5282
     12 O4          5.9876   -47.0781     0.4954 O.co2      1          -0.6373
     13 O5          6.8824   -48.3129    -0.9759 O.co2      1          -0.7100
     14 C9          8.1608   -48.9917     1.8980 C.ar       1          -0.1134
     15 C10         7.0085   -49.9569     2.0067 C.3        1           0.0606
     16 N1          6.0487   -49.4632     3.0031 N.4        1          -0.3537
     17 H1          5.9540   -48.4629     2.9123 H          1           0.4370
     18 C11         6.5318   -49.7889     4.3517 C.3        1           0.0285
     19 C12         5.8530   -48.8957     5.3578 C.2        1          -0.1682
     20 C13         6.3908   -47.7455     5.6807 C.2        1          -0.1476
     21 C14         4.7435   -50.1006     2.7835 C.3        1           0.0229
     22 C15         4.0285   -49.4048     1.6539 C.ar       1          -0.0831
     23 C16         3.2057   -48.3284     1.9152 C.ar       1          -0.1055
     24 C17         2.5488   -47.6887     0.8793 C.ar       1          -0.0938
     25 C18         2.7116   -48.1228    -0.4244 C.ar       1          -0.1038
     26 C19         3.5317   -49.1974    -0.6993 C.ar       1          -0.0826
     27 C20         4.2017   -49.8441     0.3407 C.ar       1          -0.1084
     28 C21         5.0866   -50.9930     0.0528 C.2        1           0.5399
     29 O6          4.8516   -52.0795     0.5444 O.2        1          -0.5105
     30 N2          6.1541   -50.8355    -0.7550 N.am       1          -0.7077
     31 C22         7.0311   -51.9738    -1.0403 C.3        1           0.1590
     32 C23         7.6311   -51.8140    -2.4134 C.ar       1          -0.1100
     33 C24         6.9782   -52.3298    -3.5173 C.ar       1          -0.0986
     34 C25         7.5287   -52.1832    -4.7768 C.ar       1          -0.1218
     35 C26         8.7316   -51.5203    -4.9325 C.ar       1          -0.1110
     36 C27         9.3840   -51.0037    -3.8288 C.ar       1          -0.1222
     37 C28         8.8315   -51.1466    -2.5697 C.ar       1          -0.0964
     38 C29         9.2679   -49.1469     2.7021 C.ar       1          -0.1142
     39 C30        10.3309   -48.2635     2.6089 C.ar       1          -0.1213
     40 C31        10.2931   -47.2142     1.7051 C.ar       1           0.0630
     41 O7         11.3449   -46.3533     1.6284 O.3        1          -0.2989
     42 H2         13.4806   -47.6805    -1.3216 H          1           0.0632
     43 H3         13.1300   -47.6804     0.4235 H          1           0.0559
     44 H4         11.8980   -45.7983    -1.6398 H          1           0.0845
     45 H5         11.0864   -47.1965    -0.8952 H          1           0.0720
     46 H6         12.1666   -44.7565     0.5937 H          1           0.0797
     47 H7          9.7379   -44.3603     1.0762 H          1           0.1191
     48 H8         10.0720   -44.2994    -0.6769 H          1           0.0701
     49 H9          6.5151   -50.0441     1.0388 H          1           0.1025
     50 H10         7.3810   -50.9340     2.3140 H          1           0.1588
     51 H11         6.3030   -50.8304     4.5779 H          1           0.1118
     52 H12         7.6098   -49.6353     4.3985 H          1           0.1198
     53 H13         4.9230   -49.2035     5.8126 H          1           0.1407
     54 H14         7.3206   -47.4375     5.2259 H          1           0.0937
     55 H15         5.9043   -47.1053     6.4017 H          1           0.1120
     56 H16         4.8899   -51.1503     2.5290 H          1           0.1637
     57 H17         4.1456   -50.0271     3.6919 H          1           0.1186
     58 H18         3.0740   -47.9850     2.9306 H          1           0.1375
     59 H19         1.9055   -46.8469     1.0894 H          1           0.1359
     60 H20         2.1953   -47.6194    -1.2284 H          1           0.1364
     61 H21         3.6580   -49.5352    -1.7173 H          1           0.1335
     62 H22         6.3416   -49.9684    -1.1474 H          1           0.3989
     63 H23         7.8281   -52.0134    -0.2978 H          1           0.0904
     64 H24         6.4524   -52.8968    -1.0018 H          1           0.0806
     65 H25         6.0384   -52.8477    -3.3957 H          1           0.1237
     66 H26         7.0188   -52.5867    -5.6393 H          1           0.1242
     67 H27         9.1620   -51.4064    -5.9165 H          1           0.1226
     68 H28        10.3241   -50.4861    -3.9503 H          1           0.1239
     69 H29         9.3393   -50.7397    -1.7077 H          1           0.1259
     70 H30         9.3075   -49.9619     3.4097 H          1           0.1204
     71 H31        11.1944   -48.3939     3.2443 H          1           0.1290
@<TRIPOS>BOND
     1    1    2 1
     2    2    3 2
     3    2    4 1
     4    4    5 1
     5    4   42 1
     6    4   43 1
     7    5    6 1
     8    5   44 1
     9    5   45 1
    10    6   41 1
    11    6    7 1
    12    6   46 1
    13    7    8 1
    14    7   47 1
    15    7   48 1
    16    8    9 1
    17    9   40 ar
    18    9   10 ar
    19   10   11 1
    20   10   14 ar
    21   11   12 1
    22   11   13 2
    23   14   15 1
    24   14   38 ar
    25   15   16 1
    26   15   49 1
    27   15   50 1
    28   16   17 1
    29   16   18 1
    30   16   21 1
    31   18   19 1
    32   18   51 1
    33   18   52 1
    34   19   20 2
    35   19   53 1
    36   20   54 1
    37   20   55 1
    38   21   22 1
    39   21   56 1
    40   21   57 1
    41   22   27 ar
    42   22   23 ar
    43   23   24 ar
    44   23   58 1
    45   24   25 ar
    46   24   59 1
    47   25   26 ar
    48   25   60 1
    49   26   27 ar
    50   26   61 1
    51   27   28 1
    52   28   29 2
    53   28   30 am
    54   30   31 1
    55   30   62 1
    56   31   32 1
    57   31   63 1
    58   31   64 1
    59   32   37 ar
    60   32   33 ar
    61   33   34 ar
    62   33   65 1
    63   34   35 ar
    64   34   66 1
    65   35   36 ar
    66   35   67 1
    67   36   37 ar
    68   36   68 1
    69   37   69 1
    70   38   39 ar
    71   38   70 1
    72   39   40 ar
    73   39   71 1
    74   40   41 1
