AVX38780_0, 3
##########                 Name:           AVX38780_0
##########          Protonation:                   61
##########               SMILES:   c(cc1)CNC(=O)c2ccccc2C[NH+](CC=C)Cc3ccc4c(c3C(=O)[O-])OC[C@H](O4)CCC(=O)[O-]
##########            Long Name:   ]methyl]-2-(3-oxido-3-oxo-propyl)-2,3-dihydro-1,4-benzodioxine-5-carboxylate
##########          FlexRecCode: 1
##########               Number:                   15
##########   Ligand Source File: /raid1/people/rgc/Examples/sampl4/screening/ligands/build_1//sampl4-hivint-00000
##########           GlobalRank: 122
##########                 Rank:                    1
##########               Setnum:                    7
##########             Matchnum:                20378
##########                Cloud:                    1
##########        Electrostatic:            -7.951202
##########        Van der Waals:           -20.816269
##########  Ligand Polar Desolv:            10.657683
########## Ligand Apolar Desolv:            -2.216589
##########      Internal Energy:             0.000000
##########      Receptor Energy: 0.0
########## Receptor Desolvation:             0.000000
########## Receptor Hydrophobic:             0.000000
##########         Total Energy: -20.33
##########        Ligand Charge:            -1.000000
##########            Arbitrary:    +999.9990
##########     heavy atom count:   42
##########           pose count:    1
##########        Ligand Energy:             0.000000
# num electro vdwattr vdwrepu polsolv apolsol rdesolv rhydroe totalscore fullpol fullapo
#   1    0.01   -0.08    0.00    0.00    0.00    0.00    0.00      -0.07   -0.06    0.03
#   2   -0.09   -0.11    0.01    0.15    0.05    0.00    0.00       0.00    2.72    0.93
#   3    0.03   -0.34    0.04   -0.10   -0.03    0.00    0.00      -0.39   -0.92   -0.31
#   4    0.00   -0.27    0.02    0.20   -0.04    0.00    0.00      -0.09    2.02   -0.42
#   5    0.02   -0.54    0.09    0.13   -0.07    0.00    0.00      -0.37    0.83   -0.46
#   6    0.07   -1.32    0.61    0.27   -0.09    0.00    0.00      -0.46    1.09   -0.37
#   7    0.61   -1.42    0.80   -0.41   -0.14    0.00    0.00      -0.55   -1.32   -0.44
#   8   -5.53   -1.09    0.15    1.58    0.67    0.00    0.00      -4.22    5.49    2.32
#   9    7.45   -1.11    0.12   -1.41   -0.21    0.00    0.00       4.84   -4.20   -0.63
#  10  -11.08   -2.87    1.68    1.44    0.09    0.00    0.00     -10.73    3.62    0.23
#  11   -0.86   -0.80    0.04    0.25   -0.09    0.00    0.00      -1.46    0.84   -0.30
#  12   -0.73   -1.29    0.24    0.34   -0.15    0.00    0.00      -1.59    1.00   -0.44
#  13   -0.83   -1.52    0.26    0.42   -0.19    0.00    0.00      -1.86    1.02   -0.47
#  14   -0.63   -1.25    0.24    0.17   -0.18    0.00    0.00      -1.65    0.45   -0.47
#  15   -0.62   -0.76    0.05    0.00   -0.11    0.00    0.00      -1.44    0.01   -0.39
#  16   -0.44   -0.70    0.04    0.04   -0.06    0.00    0.00      -1.13    0.14   -0.23
#  17    0.16   -0.71    0.12    0.05   -0.07    0.00    0.00      -0.46    0.18   -0.28
#  18   -0.51   -0.37    0.02   -0.05    0.01    0.00    0.00      -0.90   -0.31    0.07
#  19    0.85    0.00    0.00   -0.12    0.02    0.00    0.00       0.74   -2.28    0.29
#  20   -0.01   -0.37    0.05    0.01   -0.05    0.00    0.00      -0.37    0.10   -0.37
#  21    0.15   -0.67    0.17   -0.03   -0.05    0.00    0.00      -0.43   -0.19   -0.35
#  22    0.03   -0.28    0.01    0.07   -0.04    0.00    0.00      -0.21    0.60   -0.34
#  23    0.07   -0.23    0.01    0.00   -0.04    0.00    0.00      -0.18    0.01   -0.28
#  24   -0.11   -0.18    0.00    0.02   -0.02    0.00    0.00      -0.29    0.31   -0.31
#  25    0.00   -0.11    0.00    0.00   -0.01    0.00    0.00      -0.13   -0.10   -0.39
#  26    0.00   -0.06    0.00    0.02   -0.01    0.00    0.00      -0.05    1.02   -0.46
#  27    0.00   -0.09    0.00    0.01   -0.01    0.00    0.00      -0.09    0.15   -0.30
#  28   -0.03   -0.06    0.00    0.18    0.02    0.00    0.00       0.12    6.76    0.62
#  29    0.01   -0.11    0.00   -0.13   -0.01    0.00    0.00      -0.23   -1.73   -0.12
#  30   -0.01   -0.08    0.00    0.08   -0.01    0.00    0.00      -0.02    1.47   -0.18
#  31   -0.02   -0.02    0.00    0.05    0.00    0.00    0.00       0.00    3.61   -0.25
#  32    0.04   -0.02    0.00   -0.14    0.00    0.00    0.00      -0.13  -15.77   -0.16
#  33   -0.07   -0.02    0.00    0.30    0.00    0.00    0.00       0.21   28.81   -0.41
#  34   -0.02   -0.01    0.00    0.22    0.00    0.00    0.00       0.18   30.67   -0.43
#  35    0.00   -0.41    0.07   -0.08   -0.02    0.00    0.00      -0.43   -0.50   -0.12
#  36   -0.01   -0.57    0.10    1.41    0.05    0.00    0.00       0.97    8.13    0.27
#  37    0.01   -0.25    0.01   -0.02   -0.03    0.00    0.00      -0.27   -0.17   -0.30
#  38   -0.09   -0.27    0.01    0.36   -0.04    0.00    0.00      -0.03    3.32   -0.40
#  39    1.28   -0.69    0.13   -2.15   -0.03    0.00    0.00      -1.46  -11.28   -0.15
#  40   -1.37   -0.52    0.04    2.22   -0.04    0.00    0.00       0.32   11.10   -0.22
#  41   -3.13   -1.70    1.47    6.40   -0.16    0.00    0.00       2.88   24.13   -0.59
#  42   -0.05   -1.38    0.44    0.06   -0.12    0.00    0.00      -1.05    0.22   -0.46
#  43   -0.07   -0.73    0.19    0.18   -0.08    0.00    0.00      -0.52    1.04   -0.46
#  44    0.03   -0.01    0.00    0.00    0.00    0.00    0.00       0.02   -0.32   -0.28
#  45    0.03   -0.05    0.01   -0.01   -0.01    0.00    0.00      -0.04   -0.29   -0.27
#  46    0.02   -0.02    0.00    0.00    0.00    0.00    0.00       0.00   -0.29   -0.27
#  47    0.01   -0.02    0.00   -0.02    0.00    0.00    0.00      -0.03   -1.13   -0.22
#  48   -0.02   -0.07    0.00   -0.07   -0.02    0.00    0.00      -0.17   -1.23   -0.28
#  49    0.05   -0.55    0.49   -0.14   -0.07    0.00    0.00      -0.23   -0.55   -0.28
#  50    0.76   -0.93    0.87   -0.16   -0.11    0.00    0.00       0.43   -0.39   -0.28
#  51    2.22   -0.02    0.00   -0.56    0.08    0.00    0.00       1.71   -3.04    0.44
#  52    1.15   -0.46    0.27   -0.25   -0.06    0.00    0.00       0.65   -0.98   -0.22
#  53    0.73   -0.50    0.12   -0.34   -0.11    0.00    0.00      -0.10   -0.83   -0.28
#  54    0.72   -0.34    0.09   -0.08   -0.09    0.00    0.00       0.30   -0.25   -0.28
#  55    0.48   -0.12    0.00    0.11   -0.03    0.00    0.00       0.44    0.93   -0.28
#  56    0.50   -0.40    0.14    0.54   -0.07    0.00    0.00       0.71    2.19   -0.27
#  57    0.03   -0.43    0.35    0.12   -0.04    0.00    0.00       0.03    0.49   -0.15
#  58   -0.03   -0.04    0.00    0.01   -0.01    0.00    0.00      -0.06    0.31   -0.20
#  59   -0.05   -0.25    0.06    0.40   -0.05    0.00    0.00       0.12    2.30   -0.28
#  60   -0.43   -0.41    0.48    0.04   -0.04    0.00    0.00      -0.36    0.24   -0.22
#  61   -0.03   -0.06    0.00   -0.02   -0.02    0.00    0.00      -0.13   -0.35   -0.28
#  62    0.00   -0.03    0.00   -0.01   -0.01    0.00    0.00      -0.04   -0.32   -0.27
#  63    0.65   -0.08    0.00   -0.02   -0.01    0.00    0.00       0.55   -0.28   -0.14
#  64    0.01   -0.09    0.00    0.12   -0.02    0.00    0.00       0.03    1.68   -0.27
#  65   -0.03   -0.02    0.00    0.02   -0.01    0.00    0.00      -0.04    0.87   -0.28
#  66   -0.01   -0.01    0.00   -0.01    0.00    0.00    0.00      -0.03   -1.36   -0.28
#  67    0.01   -0.03    0.00   -0.04   -0.01    0.00    0.00      -0.06   -1.79   -0.28
#  68    0.02   -0.04    0.00   -0.08   -0.01    0.00    0.00      -0.10   -2.05   -0.28
#  69    0.01   -0.02    0.00   -0.02   -0.01    0.00    0.00      -0.04   -1.17   -0.28
#  70    0.01    0.00    0.00   -0.01    0.00    0.00    0.00      -0.01   -2.22   -0.27
#  71    0.01    0.00    0.00   -0.01    0.00    0.00    0.00      -0.01   -2.42   -0.28
#  72    0.01   -0.10    0.01   -0.14   -0.03    0.00    0.00      -0.24   -1.42   -0.28
#  73    0.00   -0.34    0.25   -0.55   -0.06    0.00    0.00      -0.70   -2.79   -0.28
#  74    0.60   -0.39    0.17   -0.09   -0.08    0.00    0.00       0.21   -0.33   -0.28
#  75    0.08   -0.10    0.01   -0.06   -0.02    0.00    0.00      -0.09   -0.69   -0.28

@<TRIPOS>MOLECULE
       AVX38780_0        61
   75    78     0     0     0



@<TRIPOS>ATOM
      1 C1         15.1996   -54.6410    -3.5516 C.3        1           0.0252
      2 O1         14.1690   -54.5549    -2.5654 O.3        1          -0.3177
      3 C2         14.1275   -53.4236    -1.8136 C.ar       1           0.1366
      4 C3         13.1564   -53.2757    -0.8339 C.ar       1          -0.2084
      5 C4         13.1165   -52.1248    -0.0707 C.ar       1          -0.0535
      6 C5         14.0430   -51.1207    -0.2828 C.ar       1          -0.1520
      7 C6         13.9970   -49.8662     0.5508 C.3        1           0.1676
      8 N1         13.1380   -48.8763    -0.1037 N.am       1          -0.7113
      9 C7         12.9468   -47.6691     0.4644 C.2        1           0.5729
     10 O2         13.4872   -47.4018     1.5200 O.2        1          -0.5614
     11 C8         12.0799   -46.6702    -0.1960 C.ar       1          -0.0766
     12 C9         12.3869   -46.2147    -1.4794 C.ar       1          -0.0694
     13 C10        11.5736   -45.2829    -2.0901 C.ar       1          -0.1006
     14 C11        10.4556   -44.7994    -1.4333 C.ar       1          -0.0896
     15 C12        10.1457   -45.2467    -0.1615 C.ar       1          -0.0995
     16 C13        10.9477   -46.1827     0.4585 C.ar       1          -0.0572
     17 C14        10.6054   -46.6732     1.8417 C.3        1           0.0441
     18 N2          9.7369   -47.8536     1.7418 N.4        1          -0.3543
     19 H1          9.0685   -47.7173     0.9982 H          1           0.4381
     20 C15         9.0242   -48.0462     3.0117 C.3        1           0.0230
     21 C16         7.8484   -47.1056     3.0756 C.2        1          -0.1882
     22 C17         6.6814   -47.4836     2.6158 C.2        1          -0.1345
     23 C18        10.5541   -49.0400     1.4541 C.3        1           0.0472
     24 C19         9.6808   -50.1232     0.8753 C.ar       1          -0.1298
     25 C20         9.7962   -51.4180     1.3300 C.ar       1          -0.1183
     26 C21         8.9985   -52.4192     0.8012 C.ar       1          -0.1211
     27 C22         8.0749   -52.1310    -0.1913 C.ar       1           0.0629
     28 O3          7.3081   -53.1336    -0.7013 O.3        1          -0.2958
     29 C23         6.1381   -52.7425    -1.4282 C.3        1           0.0501
     30 C24         5.5980   -53.9366    -2.2177 C.3        1          -0.0836
     31 C25         5.7083   -55.2029    -1.3661 C.3        1          -0.1799
     32 C26         4.9044   -55.0307    -0.1033 C.2        1           0.4903
     33 O4          3.7047   -54.8228    -0.1678 O.co2      1          -0.6992
     34 O5          5.4536   -55.0993     0.9831 O.co2      1          -0.7064
     35 C27         6.5272   -51.6161    -2.3952 C.3        1           0.0178
     36 O6          7.0418   -50.5233    -1.6263 O.3        1          -0.2586
     37 C28         7.9436   -50.8289    -0.6587 C.ar       1           0.0870
     38 C29         8.7482   -49.8134    -0.1204 C.ar       1          -0.1235
     39 C30         8.6160   -48.4301    -0.6051 C.2        1           0.5219
     40 O7          7.8308   -47.6644    -0.0632 O.co2      1          -0.6914
     41 O8          9.2916   -48.0459    -1.5500 O.co2      1          -0.6359
     42 C31        15.0120   -51.2658    -1.2584 C.ar       1          -0.0602
     43 C32        15.0595   -52.4170    -2.0207 C.ar       1          -0.1564
     44 H2         15.1193   -55.5914    -4.0790 H          1           0.1014
     45 H3         15.0923   -53.8211    -4.2617 H          1           0.0581
     46 H4         16.1733   -54.5760    -3.0660 H          1           0.0576
     47 H5         12.4321   -54.0594    -0.6682 H          1           0.1316
     48 H6         12.3608   -52.0093     0.6923 H          1           0.1312
     49 H7         13.5959   -50.0999     1.5370 H          1           0.0782
     50 H8         15.0038   -49.4616     0.6545 H          1           0.0796
     51 H9         12.7066   -49.0896    -0.9459 H          1           0.4037
     52 H10        13.2595   -46.5908    -1.9927 H          1           0.1226
     53 H11        11.8101   -44.9298    -3.0830 H          1           0.1278
     54 H12         9.8225   -44.0694    -1.9157 H          1           0.1276
     55 H13         9.2720   -44.8650     0.3459 H          1           0.1276
     56 H14        11.5211   -46.9396     2.3696 H          1           0.1137
     57 H15        10.0868   -45.8858     2.3885 H          1           0.1444
     58 H16         8.6703   -49.0751     3.0775 H          1           0.1242
     59 H17         9.6995   -47.8404     3.8422 H          1           0.1205
     60 H18         7.9680   -46.1198     3.5002 H          1           0.1310
     61 H19         5.8389   -46.8097     2.6616 H          1           0.1115
     62 H20         6.5620   -48.4695     2.1911 H          1           0.1030
     63 H21        11.3331   -48.7796     0.7375 H          1           0.1682
     64 H22        11.0130   -49.3972     2.3760 H          1           0.1025
     65 H23        10.5128   -51.6541     2.1027 H          1           0.1270
     66 H24         9.0969   -53.4315     1.1647 H          1           0.1354
     67 H25         5.3766   -52.3857    -0.7347 H          1           0.0807
     68 H26         4.5532   -53.7606    -2.4732 H          1           0.0863
     69 H27         6.1795   -54.0612    -3.1312 H          1           0.0744
     70 H28         5.3235   -56.0537    -1.9286 H          1           0.0635
     71 H29         6.7531   -55.3792    -1.1106 H          1           0.0555
     72 H30         7.2918   -51.9720    -3.0856 H          1           0.0756
     73 H31         5.6492   -51.2915    -2.9537 H          1           0.1228
     74 H32        15.7350   -50.4802    -1.4221 H          1           0.1305
     75 H33        15.8188   -52.5314    -2.7801 H          1           0.1321
@<TRIPOS>BOND
     1    1    2 1
     2    1   44 1
     3    1   45 1
     4    1   46 1
     5    2    3 1
     6    3   43 ar
     7    3    4 ar
     8    4    5 ar
     9    4   47 1
    10    5    6 ar
    11    5   48 1
    12    6    7 1
    13    6   42 ar
    14    7    8 1
    15    7   49 1
    16    7   50 1
    17    8    9 am
    18    8   51 1
    19    9   10 2
    20    9   11 1
    21   11   16 ar
    22   11   12 ar
    23   12   13 ar
    24   12   52 1
    25   13   14 ar
    26   13   53 1
    27   14   15 ar
    28   14   54 1
    29   15   16 ar
    30   15   55 1
    31   16   17 1
    32   17   18 1
    33   17   56 1
    34   17   57 1
    35   18   19 1
    36   18   20 1
    37   18   23 1
    38   20   21 1
    39   20   58 1
    40   20   59 1
    41   21   22 2
    42   21   60 1
    43   22   61 1
    44   22   62 1
    45   23   24 1
    46   23   63 1
    47   23   64 1
    48   24   38 ar
    49   24   25 ar
    50   25   26 ar
    51   25   65 1
    52   26   27 ar
    53   26   66 1
    54   27   37 ar
    55   27   28 1
    56   28   29 1
    57   29   30 1
    58   29   35 1
    59   29   67 1
    60   30   31 1
    61   30   68 1
    62   30   69 1
    63   31   32 1
    64   31   70 1
    65   31   71 1
    66   32   33 1
    67   32   34 2
    68   35   36 1
    69   35   72 1
    70   35   73 1
    71   36   37 1
    72   37   38 ar
    73   38   39 1
    74   39   40 1
    75   39   41 2
    76   42   43 ar
    77   42   74 1
    78   43   75 1
