AVX38786_1, 3
##########                 Name:           AVX38786_0
##########          Protonation:                   77
##########               SMILES:   +](Cc1ccccc1C(=O)NCc2ccc(cc2)OC)Cc3ccc4c(c3C(=O)[O-])OC[C@@H](O4)CCC(=O)[O-]
##########            Long Name:   ]methyl]-2-(3-oxido-3-oxo-propyl)-2,3-dihydro-1,4-benzodioxine-5-carboxylate
##########          FlexRecCode: 1
##########               Number:                  752
##########   Ligand Source File: /raid1/people/rgc/Examples/sampl4/screening/ligands/build_1//sampl4-hivint-00000
##########           GlobalRank: 86
##########                 Rank:                    1
##########               Setnum:                  119
##########             Matchnum:                11167
##########                Cloud:                    1
##########        Electrostatic:            -3.782235
##########        Van der Waals:           -22.196312
##########  Ligand Polar Desolv:             3.006099
########## Ligand Apolar Desolv:            -2.577161
##########      Internal Energy:             0.000000
##########      Receptor Energy: 0.0
########## Receptor Desolvation:             0.000000
########## Receptor Hydrophobic:             0.000000
##########         Total Energy: -25.55
##########        Ligand Charge:            -1.000000
##########            Arbitrary:    +999.9990
##########     heavy atom count:   40
##########           pose count:    1
##########        Ligand Energy:             0.000000
# num electro vdwattr vdwrepu polsolv apolsol rdesolv rhydroe totalscore fullpol fullapo
#   1    0.40   -1.12    0.16    0.00    0.01    0.00    0.00      -0.54    0.01    0.03
#   2   -8.71   -2.55    1.35    0.68    0.43    0.00    0.00      -8.80    1.48    0.93
#   3    3.28   -2.01    0.71   -0.15   -0.13    0.00    0.00       1.69   -0.37   -0.31
#   4   -5.82   -2.23    0.59    0.10   -0.18    0.00    0.00      -7.54    0.24   -0.42
#   5   -0.93   -1.20    0.12    0.00   -0.16    0.00    0.00      -2.17    0.00   -0.45
#   6   -1.61   -0.81    0.05    0.03   -0.11    0.00    0.00      -2.44    0.10   -0.37
#   7    1.03   -0.41    0.03   -0.03   -0.09    0.00    0.00       0.53   -0.12   -0.44
#   8   -3.42   -0.64    0.03   -0.05    0.59    0.00    0.00      -3.49   -0.18    2.32
#   9    1.33   -0.67    0.04   -0.21   -0.16    0.00    0.00       0.33   -0.87   -0.65
#  10   -1.07   -0.54    0.03    0.50    0.07    0.00    0.00      -1.01    2.34    0.32
#  11   -0.12   -0.94    0.11    0.02   -0.13    0.00    0.00      -1.05    0.07   -0.41
#  12   -0.12   -1.71    0.34   -0.05   -0.18    0.00    0.00      -1.72   -0.11   -0.44
#  13   -0.03   -3.11    1.39   -0.08   -0.23    0.00    0.00      -2.07   -0.17   -0.47
#  14    0.08   -2.95    1.28    0.00   -0.23    0.00    0.00      -1.82    0.00   -0.47
#  15    0.22   -1.35    0.16    0.03   -0.14    0.00    0.00      -1.08    0.08   -0.34
#  16    0.05   -0.88    0.09    0.01   -0.12    0.00    0.00      -0.84    0.04   -0.39
#  17   -0.08   -0.46    0.07    0.00   -0.05    0.00    0.00      -0.52   -0.01   -0.26
#  18    0.11   -0.30    0.02   -0.02    0.02    0.00    0.00      -0.17   -0.13    0.16
#  19    0.08   -0.01    0.00   -0.19    0.04    0.00    0.00      -0.08   -1.74    0.33
#  20    0.01   -0.24    0.01   -0.06   -0.05    0.00    0.00      -0.33   -0.42   -0.41
#  21   -0.01   -0.12    0.00   -0.01   -0.02    0.00    0.00      -0.16   -0.13   -0.29
#  22    0.00   -0.12    0.00    0.02   -0.02    0.00    0.00      -0.12    0.30   -0.30
#  23   -0.01   -0.27    0.01   -0.01   -0.04    0.00    0.00      -0.32   -0.13   -0.40
#  24   -0.01   -0.28    0.01    0.10   -0.06    0.00    0.00      -0.24    0.78   -0.46
#  25    0.00   -0.11    0.00    0.00   -0.01    0.00    0.00      -0.11    0.06   -0.30
#  26   -0.03   -0.10    0.00    0.32    0.03    0.00    0.00       0.22    6.31    0.62
#  27    0.00   -0.03    0.00   -0.03    0.00    0.00    0.00      -0.05   -1.59   -0.12
#  28   -0.01   -0.03    0.00    0.02    0.00    0.00    0.00      -0.02    1.37   -0.18
#  29   -0.02   -0.01    0.00    0.02    0.00    0.00    0.00       0.00    3.61   -0.24
#  30    0.05   -0.01    0.00   -0.08    0.00    0.00    0.00      -0.05  -15.59   -0.16
#  31   -0.09   -0.02    0.00    0.22    0.00    0.00    0.00       0.11   28.34   -0.41
#  32   -0.05    0.00    0.00    0.08    0.00    0.00    0.00       0.03   30.57   -0.43
#  33    0.00   -0.01    0.00    0.00    0.00    0.00    0.00      -0.01   -0.48   -0.12
#  34    0.00   -0.01    0.00    0.08    0.00    0.00    0.00       0.07    7.97    0.27
#  35    0.00   -0.04    0.00   -0.01   -0.01    0.00    0.00      -0.05   -0.37   -0.30
#  36    0.01   -0.05    0.00    0.08   -0.01    0.00    0.00       0.02    3.30   -0.40
#  37   -0.09   -0.03    0.00   -0.21    0.00    0.00    0.00      -0.33  -12.07   -0.15
#  38    0.14   -0.02    0.00    0.23    0.00    0.00    0.00       0.34   14.58   -0.30
#  39    0.12   -0.03    0.00    0.41   -0.01    0.00    0.00       0.49   24.37   -0.59
#  40   -0.57   -1.40    0.28    0.05   -0.16    0.00    0.00      -1.80    0.14   -0.45
#  41   -1.83   -1.57    0.30    0.27   -0.19    0.00    0.00      -3.01    0.68   -0.46
#  42    1.07   -0.40    0.10    0.04   -0.11    0.00    0.00       0.70    0.11   -0.27
#  43    0.52   -0.25    0.03    0.02   -0.06    0.00    0.00       0.26    0.08   -0.26
#  44    1.17   -0.42    0.09    0.07   -0.11    0.00    0.00       0.79    0.18   -0.28
#  45    4.70   -0.86    0.39    0.07   -0.11    0.00    0.00       4.19    0.15   -0.22
#  46    1.68   -0.31    0.07    0.08   -0.07    0.00    0.00       1.45    0.35   -0.28
#  47    0.51   -0.23    0.09   -0.02   -0.05    0.00    0.00       0.29   -0.13   -0.28
#  48    0.35   -0.07    0.00    0.00   -0.02    0.00    0.00       0.26   -0.03   -0.28
#  49    2.39   -0.01    0.00    0.14    0.06    0.00    0.00       2.58    0.96    0.44
#  50    0.34   -0.35    0.05    0.24   -0.07    0.00    0.00       0.20    0.71   -0.22
#  51    0.13   -1.11    1.24    0.28   -0.13    0.00    0.00       0.41    0.58   -0.28
#  52   -0.12   -1.62    4.15    0.09   -0.15    0.00    0.00       2.35    0.17   -0.28
#  53   -0.28   -0.24    0.02    0.00   -0.06    0.00    0.00      -0.56   -0.01   -0.18
#  54   -0.22   -0.15    0.04   -0.04   -0.03    0.00    0.00      -0.41   -0.36   -0.26
#  55   -0.36   -0.22    0.06    0.09   -0.04    0.00    0.00      -0.46    0.57   -0.23
#  56   -0.01   -0.05    0.00    0.03   -0.01    0.00    0.00      -0.04    0.53   -0.23
#  57   -0.04   -0.05    0.00    0.07   -0.01    0.00    0.00      -0.03    1.86   -0.28
#  58   -0.03   -0.12    0.01    0.11   -0.02    0.00    0.00      -0.05    0.83   -0.18
#  59   -0.03   -0.03    0.00   -0.02   -0.01    0.00    0.00      -0.09   -0.59   -0.20
#  60   -0.04   -0.03    0.00    0.03   -0.01    0.00    0.00      -0.05    1.05   -0.27
#  61    0.03   -0.10    0.01    0.09   -0.03    0.00    0.00       0.01    0.93   -0.28
#  62    0.01   -0.12    0.01   -0.16   -0.04    0.00    0.00      -0.30   -1.22   -0.28
#  63    0.01   -0.01    0.00   -0.01    0.00    0.00    0.00      -0.01   -1.63   -0.28
#  64    0.01   -0.02    0.00   -0.02    0.00    0.00    0.00      -0.03   -1.29   -0.28
#  65    0.01    0.00    0.00   -0.01    0.00    0.00    0.00      -0.01   -1.97   -0.28
#  66    0.00    0.00    0.00   -0.01    0.00    0.00    0.00       0.00   -2.28   -0.28
#  67    0.01    0.00    0.00   -0.01    0.00    0.00    0.00      -0.01   -2.22   -0.27
#  68    0.00    0.00    0.00   -0.01    0.00    0.00    0.00      -0.01   -2.63   -0.28
#  69    0.00    0.00    0.00   -0.01    0.00    0.00    0.00      -0.01   -1.57   -0.28
#  70    1.11   -0.42    0.14   -0.06   -0.09    0.00    0.00       0.68   -0.18   -0.28
#  71    0.98   -0.35    0.05   -0.15   -0.08    0.00    0.00       0.45   -0.49   -0.28

@<TRIPOS>MOLECULE
       AVX38786_0        77
   71    74     0     0     0



@<TRIPOS>ATOM
      1 C1         16.2122   -44.9520    -2.3152 C.3        1           0.0258
      2 O1         15.8375   -45.4392    -1.0251 O.3        1          -0.3161
      3 C2         14.5358   -45.7889    -0.8517 C.ar       1           0.1381
      4 C3         14.1018   -46.2643     0.3773 C.ar       1          -0.2113
      5 C4         12.7779   -46.6187     0.5510 C.ar       1          -0.0580
      6 C5         11.8859   -46.5005    -0.4987 C.ar       1          -0.1532
      7 C6         10.4424   -46.8883    -0.3064 C.3        1           0.1661
      8 N1          9.6806   -45.7236     0.1511 N.am       1          -0.7176
      9 C7          8.3588   -45.8345     0.3906 C.2        1           0.5590
     10 O2          7.7990   -46.9008     0.2271 O.2        1          -0.5336
     11 C8          7.5901   -44.6590     0.8522 C.ar       1          -0.1206
     12 C9          7.5216   -43.5113     0.0607 C.ar       1          -0.0734
     13 C10         6.8022   -42.4182     0.4971 C.ar       1          -0.1169
     14 C11         6.1503   -42.4571     1.7166 C.ar       1          -0.0706
     15 C12         6.2137   -43.5917     2.5061 C.ar       1          -0.1431
     16 C13         6.9251   -44.6941     2.0786 C.ar       1          -0.0522
     17 C14         6.9889   -45.9310     2.9372 C.3        1           0.0506
     18 N2          5.8781   -46.8270     2.5886 N.4        1          -0.3733
     19 H1          5.7480   -46.8277     1.5881 H          1           0.4293
     20 C15         4.6484   -46.3595     3.2422 C.3        1          -0.0634
     21 C16         6.1868   -48.1893     3.0432 C.3        1           0.0590
     22 C17         5.3330   -49.1760     2.2891 C.ar       1          -0.1330
     23 C18         5.1867   -49.0594     0.9249 C.ar       1          -0.1129
     24 C19         4.4048   -49.9632     0.2249 C.ar       1          -0.1203
     25 C20         3.7601   -50.9957     0.8882 C.ar       1           0.0659
     26 O3          3.0032   -51.8761     0.1773 O.3        1          -0.2954
     27 C21         2.0755   -52.6736     0.9213 C.3        1           0.0487
     28 C22         1.5746   -53.8284     0.0516 C.3        1          -0.0829
     29 C23         0.2622   -54.3667     0.6252 C.3        1          -0.1807
     30 C24        -0.2313   -55.5042    -0.2315 C.2        1           0.4904
     31 O4         -0.4801   -55.3162    -1.4101 O.co2      1          -0.6998
     32 O5         -0.3815   -56.6123     0.2542 O.co2      1          -0.7060
     33 C25         2.8007   -53.2308     2.1536 C.3        1           0.0181
     34 O6          3.2688   -52.1263     2.9355 O.3        1          -0.2585
     35 C26         3.8955   -51.1259     2.2651 C.ar       1           0.0885
     36 C27         4.6933   -50.2149     2.9737 C.ar       1          -0.1257
     37 C28         4.8511   -50.3478     4.4309 C.2        1           0.5226
     38 O7          5.7637   -51.0224     4.8881 O.co2      1          -0.7091
     39 O8          4.0700   -49.7839     5.1848 O.co2      1          -0.6285
     40 C29        12.3158   -46.0266    -1.7244 C.ar       1          -0.0575
     41 C30        13.6375   -45.6659    -1.9017 C.ar       1          -0.1532
     42 H2         17.2750   -44.7099    -2.3175 H          1           0.0569
     43 H3         16.0125   -45.7176    -3.0648 H          1           0.0573
     44 H4         15.6352   -44.0569    -2.5473 H          1           0.1023
     45 H5         14.7984   -46.3574     1.1973 H          1           0.1307
     46 H6         12.4396   -46.9887     1.5077 H          1           0.1275
     47 H7         10.0322   -47.2421    -1.2523 H          1           0.0821
     48 H8         10.3753   -47.6815     0.4381 H          1           0.0798
     49 H9         10.1273   -44.8725     0.2816 H          1           0.4024
     50 H10         8.0309   -43.4791    -0.8911 H          1           0.1330
     51 H11         6.7483   -41.5295    -0.1144 H          1           0.1375
     52 H12         5.5885   -41.5987     2.0539 H          1           0.1390
     53 H13         5.7026   -43.6159     3.4572 H          1           0.1297
     54 H14         7.9359   -46.4431     2.7668 H          1           0.1509
     55 H15         6.9123   -45.6489     3.9873 H          1           0.1474
     56 H16         3.8242   -47.0242     2.9835 H          1           0.1217
     57 H17         4.7891   -46.3586     4.3230 H          1           0.1168
     58 H18         4.4194   -45.3486     2.9048 H          1           0.1161
     59 H19         7.2393   -48.4042     2.8590 H          1           0.1659
     60 H20         5.9805   -48.2717     4.1103 H          1           0.1109
     61 H21         5.6842   -48.2587     0.3978 H          1           0.1286
     62 H22         4.2960   -49.8625    -0.8449 H          1           0.1365
     63 H23         1.2326   -52.0586     1.2368 H          1           0.0829
     64 H24         1.4076   -53.4719    -0.9649 H          1           0.0739
     65 H25         2.3194   -54.6241     0.0400 H          1           0.0869
     66 H26         0.4290   -54.7231     1.6416 H          1           0.0565
     67 H27        -0.4828   -53.5710     0.6368 H          1           0.0635
     68 H28         2.1113   -53.8336     2.7447 H          1           0.1243
     69 H29         3.6462   -53.8419     1.8377 H          1           0.0756
     70 H30        11.6170   -45.9348    -2.5427 H          1           0.1337
     71 H31        13.9721   -45.2923    -2.8583 H          1           0.1344
@<TRIPOS>BOND
     1    1    2 1
     2    1   42 1
     3    1   43 1
     4    1   44 1
     5    2    3 1
     6    3   41 ar
     7    3    4 ar
     8    4    5 ar
     9    4   45 1
    10    5    6 ar
    11    5   46 1
    12    6    7 1
    13    6   40 ar
    14    7    8 1
    15    7   47 1
    16    7   48 1
    17    8    9 am
    18    8   49 1
    19    9   10 2
    20    9   11 1
    21   11   16 ar
    22   11   12 ar
    23   12   13 ar
    24   12   50 1
    25   13   14 ar
    26   13   51 1
    27   14   15 ar
    28   14   52 1
    29   15   16 ar
    30   15   53 1
    31   16   17 1
    32   17   18 1
    33   17   54 1
    34   17   55 1
    35   18   19 1
    36   18   20 1
    37   18   21 1
    38   20   56 1
    39   20   57 1
    40   20   58 1
    41   21   22 1
    42   21   59 1
    43   21   60 1
    44   22   36 ar
    45   22   23 ar
    46   23   24 ar
    47   23   61 1
    48   24   25 ar
    49   24   62 1
    50   25   35 ar
    51   25   26 1
    52   26   27 1
    53   27   28 1
    54   27   33 1
    55   27   63 1
    56   28   29 1
    57   28   64 1
    58   28   65 1
    59   29   30 1
    60   29   66 1
    61   29   67 1
    62   30   31 1
    63   30   32 2
    64   33   34 1
    65   33   68 1
    66   33   69 1
    67   34   35 1
    68   35   36 ar
    69   36   37 1
    70   37   38 1
    71   37   39 2
    72   40   41 ar
    73   40   70 1
    74   41   71 1
