AVX38749_0, 3
##########                 Name:           AVX38749_0
##########          Protonation:                  100
##########               SMILES:   c1)C[C@H]([C@@H]2Cc3ccc4c(c3C(=O)[O-])OC[C@H](O4)CCC(=O)[O-])NC(=O)CCC[NH3+]
##########            Long Name:   ]methyl]-2-(3-oxido-3-oxo-propyl)-2,3-dihydro-1,4-benzodioxine-5-carboxylate
##########          FlexRecCode: 1
##########               Number:                  530
##########   Ligand Source File: /raid1/people/rgc/Examples/sampl4/screening/ligands/build_1//sampl4-hivint-00000
##########           GlobalRank: 102
##########                 Rank:                    1
##########               Setnum:                   16
##########             Matchnum:                 9958
##########                Cloud:                    1
##########        Electrostatic:           -30.959743
##########        Van der Waals:           -13.426536
##########  Ligand Polar Desolv:            22.667936
########## Ligand Apolar Desolv:            -1.827978
##########      Internal Energy:             0.000000
##########      Receptor Energy: 0.0
########## Receptor Desolvation:             0.000000
########## Receptor Hydrophobic:             0.000000
##########         Total Energy: -23.55
##########        Ligand Charge:            -1.000000
##########            Arbitrary:    +999.9990
##########     heavy atom count:   35
##########           pose count:    1
##########        Ligand Energy:             0.000000
# num electro vdwattr vdwrepu polsolv apolsol rdesolv rhydroe totalscore fullpol fullapo
#   1    0.49   -0.61    0.16   -2.12    0.14    0.00    0.00      -1.94  -13.42    0.86
#   2   -0.22    0.00    0.00    0.44    0.03    0.00    0.00       0.24    9.84    0.58
#   3   -0.36   -0.02    0.00    1.72    0.09    0.00    0.00       1.44   11.37    0.60
#   4   -0.48   -0.01    0.00    0.97    0.05    0.00    0.00       0.53   11.25    0.58
#   5    0.01   -0.89    0.30    0.08   -0.11    0.00    0.00      -0.61    0.36   -0.49
#   6    0.08   -0.27    0.02   -0.15   -0.03    0.00    0.00      -0.36   -1.10   -0.20
#   7    0.06   -0.25    0.01   -0.03   -0.04    0.00    0.00      -0.25   -0.19   -0.24
#   8   -0.19   -0.33    0.01   -0.36   -0.08    0.00    0.00      -0.95   -2.80   -0.66
#   9    0.49   -0.43    0.01    0.88    0.07    0.00    0.00       1.03    4.36    0.37
#  10    0.07   -0.21    0.01    0.61    0.17    0.00    0.00       0.65    7.11    1.96
#  11    0.01   -0.28    0.06   -0.25   -0.03    0.00    0.00      -0.49   -2.12   -0.23
#  12   -0.01   -0.24    0.03    0.07   -0.03    0.00    0.00      -0.18    0.59   -0.27
#  13   -0.01   -0.12    0.00    0.06   -0.02    0.00    0.00      -0.08    1.29   -0.43
#  14   -0.01   -0.06    0.00    0.02   -0.01    0.00    0.00      -0.06    0.91   -0.47
#  15   -0.01   -0.03    0.00    0.01   -0.01    0.00    0.00      -0.03    1.01   -0.47
#  16    0.00   -0.02    0.00    0.02   -0.01    0.00    0.00      -0.01    1.80   -0.47
#  17    0.00   -0.04    0.00    0.05   -0.01    0.00    0.00       0.00    2.80   -0.45
#  18    0.00   -0.10    0.00    0.09   -0.02    0.00    0.00      -0.02    2.23   -0.39
#  19    0.00   -0.14    0.01    0.03   -0.01    0.00    0.00      -0.11    0.37   -0.13
#  20    0.00   -0.31    0.03    0.20   -0.03    0.00    0.00      -0.11    1.19   -0.17
#  21   -0.04   -0.58    0.07    0.07   -0.06    0.00    0.00      -0.54    0.38   -0.31
#  22   -0.29   -1.81    1.26    0.40   -0.13    0.00    0.00      -0.57    1.38   -0.45
#  23   -0.37   -1.34    0.39    0.21   -0.14    0.00    0.00      -1.25    0.68   -0.46
#  24    0.07   -0.60    0.04   -0.10   -0.06    0.00    0.00      -0.66   -0.48   -0.30
#  25   -1.73   -0.55    0.02    1.41    0.16    0.00    0.00      -0.69    5.29    0.62
#  26    0.50   -0.56    0.04   -0.46   -0.03    0.00    0.00      -0.52   -1.62   -0.12
#  27   -0.79   -0.47    0.03    0.35   -0.05    0.00    0.00      -0.94    1.34   -0.18
#  28   -2.27   -0.72    0.07    0.80   -0.08    0.00    0.00      -2.21    2.37   -0.24
#  29   12.93   -2.12    0.54   -5.67   -0.07    0.00    0.00       5.61  -13.28   -0.16
#  30  -21.52   -3.58    1.30   13.26   -0.20    0.00    0.00     -10.75   27.08   -0.41
#  31  -21.17   -2.20    0.87   10.50   -0.17    0.00    0.00     -12.17   25.81   -0.43
#  32    0.07   -0.97    0.25   -0.03   -0.03    0.00    0.00      -0.71   -0.10   -0.12
#  33   -0.41   -0.43    0.02    1.45    0.04    0.00    0.00       0.68    8.74    0.27
#  34    0.15   -0.39    0.01   -0.18   -0.04    0.00    0.00      -0.45   -1.20   -0.30
#  35   -0.11   -0.28    0.01    0.63   -0.05    0.00    0.00       0.19    5.39   -0.41
#  36    0.08   -0.14    0.00   -0.87   -0.01    0.00    0.00      -0.95  -17.07   -0.16
#  37    0.13   -0.12    0.00    1.32   -0.02    0.00    0.00       1.32   25.17   -0.29
#  38   -0.05   -0.09    0.00    1.07   -0.02    0.00    0.00       0.92   30.03   -0.59
#  39   -0.10   -0.24    0.05    0.27   -0.05    0.00    0.00      -0.08    1.51   -0.28
#  40   -0.11   -0.87    1.00    0.86   -0.08    0.00    0.00       0.80    2.91   -0.28
#  41   -0.04   -0.03    0.00    0.02   -0.01    0.00    0.00      -0.05    1.04   -0.28
#  42   -0.07   -0.09    0.00    0.04   -0.03    0.00    0.00      -0.14    0.46   -0.28
#  43   -0.03   -0.04    0.00    0.00   -0.01    0.00    0.00      -0.09   -0.04   -0.28
#  44   -0.11   -0.15    0.01    0.08   -0.04    0.00    0.00      -0.21    0.54   -0.28
#  45   -0.05    0.00    0.00   -0.10    0.01    0.00    0.00      -0.14   -4.61    0.57
#  46    0.01   -0.25    0.24   -0.16   -0.04    0.00    0.00      -0.20   -1.09   -0.25
#  47    0.01   -0.05    0.00   -0.04   -0.01    0.00    0.00      -0.09   -0.85   -0.28
#  48    0.01   -0.15    0.05   -0.11   -0.04    0.00    0.00      -0.24   -0.84   -0.28
#  49    0.01   -0.01    0.00   -0.01    0.00    0.00    0.00      -0.01   -0.97   -0.28
#  50    0.01    0.00    0.00   -0.01    0.00    0.00    0.00       0.00   -1.05   -0.28
#  51    0.00    0.00    0.00   -0.01    0.00    0.00    0.00      -0.01   -1.71   -0.28
#  52    0.00   -0.01    0.00   -0.01    0.00    0.00    0.00      -0.03   -1.53   -0.27
#  53   -0.01   -0.02    0.00   -0.01   -0.01    0.00    0.00      -0.05   -0.51   -0.22
#  54    0.01   -0.05    0.00   -0.04   -0.01    0.00    0.00      -0.10   -0.80   -0.20
#  55    0.00   -0.20    0.06   -0.31   -0.05    0.00    0.00      -0.49   -1.60   -0.27
#  56    0.28   -1.25    5.57   -0.78   -0.10    0.00    0.00       3.72   -2.09   -0.28
#  57    0.34   -0.39    0.11   -0.67   -0.09    0.00    0.00      -0.70   -1.99   -0.28
#  58    0.99   -0.29    0.06   -0.52   -0.07    0.00    0.00       0.17   -1.95   -0.28
#  59    0.51   -0.10    0.00   -0.18   -0.03    0.00    0.00       0.21   -1.70   -0.28
#  60    0.71   -0.20    0.02   -0.10   -0.05    0.00    0.00       0.39   -0.52   -0.28
#  61    0.62   -0.26    0.05   -0.37   -0.05    0.00    0.00      -0.02   -1.87   -0.27
#  62    0.48   -0.24    0.04   -0.54   -0.07    0.00    0.00      -0.33   -2.33   -0.28
#  63    0.38   -0.54    0.31   -0.28   -0.07    0.00    0.00      -0.21   -1.07   -0.28
#  64    0.09   -0.73    0.93   -0.86   -0.09    0.00    0.00      -0.66   -2.81   -0.28

@<TRIPOS>MOLECULE
       AVX38749_0       100
   64    67     0     0     0



@<TRIPOS>ATOM
      1 N1          7.1439   -47.0762     4.3496 N.4        1          -0.6357
      2 H1          6.8199   -48.0198     4.1990 H          1           0.4381
      3 H2          8.0961   -46.9921     4.0267 H          1           0.4374
      4 H3          6.5575   -46.4336     3.8385 H          1           0.4315
      5 C1          7.0832   -46.7605     5.7830 C.3        1          -0.0125
      6 C2          5.6393   -46.8882     6.2727 C.3        1          -0.1326
      7 C3          4.7498   -45.9139     5.4978 C.3        1          -0.1451
      8 C4          4.8121   -46.2377     4.0273 C.2        1           0.5207
      9 O1          5.6506   -45.7127     3.3257 O.2        1          -0.5500
     10 N2          3.9359   -47.1106     3.4919 N.am       1          -0.7027
     11 C5          3.9962   -47.4254     2.0624 C.3        1           0.1472
     12 C6          2.6302   -47.8820     1.5389 C.3        1          -0.0863
     13 C7          2.5839   -49.3608     1.8317 C.ar       1          -0.1082
     14 C8          1.5146   -50.2320     1.9525 C.ar       1          -0.1127
     15 C9          1.7357   -51.5669     2.2303 C.ar       1          -0.1291
     16 C10         3.0271   -52.0346     2.3877 C.ar       1          -0.1224
     17 C11         4.0948   -51.1665     2.2670 C.ar       1          -0.0882
     18 C12         3.8745   -49.8283     1.9891 C.ar       1          -0.0613
     19 C13         4.8370   -48.6812     1.8080 C.3        1          -0.0348
     20 C14         5.3925   -48.6713     0.3824 C.3        1          -0.0623
     21 C15         6.6388   -47.8254     0.3349 C.ar       1          -0.0466
     22 C16         6.6892   -46.7181    -0.4825 C.ar       1          -0.1348
     23 C17         7.8307   -45.9348    -0.5312 C.ar       1          -0.1230
     24 C18         8.9348   -46.2557     0.2420 C.ar       1           0.0229
     25 O2         10.0471   -45.4732     0.1853 O.3        1          -0.3061
     26 C19        11.2613   -46.0456     0.6814 C.3        1           0.0553
     27 C20        11.7598   -47.1233    -0.2835 C.3        1          -0.0858
     28 C21        13.0575   -47.7292     0.2549 C.3        1          -0.1739
     29 C22        14.1006   -46.6492     0.3839 C.2        1           0.4891
     30 O3         14.2021   -46.0207     1.4237 O.co2      1          -0.6937
     31 O4         14.8427   -46.4037    -0.5517 O.co2      1          -0.7135
     32 C23        10.9498   -46.6721     2.0457 C.3        1           0.0167
     33 O5          9.9755   -47.6986     1.8325 O.3        1          -0.2598
     34 C24         8.9004   -47.3707     1.0716 C.ar       1           0.0834
     35 C25         7.7433   -48.1612     1.1255 C.ar       1          -0.1352
     36 C26         7.6928   -49.3400     2.0050 C.2        1           0.5214
     37 O6          7.2928   -49.2281     3.1558 O.co2      1          -0.6802
     38 O7          8.0508   -50.4321     1.5854 O.co2      1          -0.6650
     39 H4          7.7168   -47.4547     6.3350 H          1           0.1394
     40 H5          7.4333   -45.7412     5.9457 H          1           0.1330
     41 H6          5.2895   -47.9076     6.1100 H          1           0.0919
     42 H7          5.5942   -46.6540     7.3362 H          1           0.0976
     43 H8          3.7213   -46.0049     5.8468 H          1           0.1076
     44 H9          5.0999   -44.8945     5.6605 H          1           0.1006
     45 H10         3.2653   -47.5305     4.0531 H          1           0.4051
     46 H11         4.3737   -46.5773     1.4911 H          1           0.1024
     47 H12         1.8290   -47.3649     2.0667 H          1           0.0775
     48 H13         2.5559   -47.7047     0.4659 H          1           0.0727
     49 H14         0.5057   -49.8670     1.8297 H          1           0.1123
     50 H15         0.9002   -52.2447     2.3248 H          1           0.1173
     51 H16         3.2012   -53.0781     2.6052 H          1           0.1203
     52 H17         5.1034   -51.5323     2.3904 H          1           0.1316
     53 H18         5.6485   -48.7483     2.5325 H          1           0.1092
     54 H19         5.6331   -49.6901     0.0790 H          1           0.1181
     55 H20         4.6460   -48.2570    -0.2954 H          1           0.0460
     56 H21         5.8342   -46.4592    -1.0892 H          1           0.1141
     57 H22         7.8604   -45.0691    -1.1761 H          1           0.1172
     58 H23        12.0184   -45.2693     0.7919 H          1           0.0701
     59 H24        11.0055   -47.9047    -0.3767 H          1           0.0831
     60 H25        11.9448   -46.6784    -1.2612 H          1           0.0739
     61 H26        12.8724   -48.1742     1.2326 H          1           0.0612
     62 H27        13.4126   -48.4971    -0.4323 H          1           0.0492
     63 H28        11.8559   -47.1042     2.4703 H          1           0.0705
     64 H29        10.5479   -45.9142     2.7180 H          1           0.1159
@<TRIPOS>BOND
     1    1    2 1
     2    1    3 1
     3    1    4 1
     4    1    5 1
     5    5    6 1
     6    5   39 1
     7    5   40 1
     8    6    7 1
     9    6   41 1
    10    6   42 1
    11    7    8 1
    12    7   43 1
    13    7   44 1
    14    8    9 2
    15    8   10 am
    16   10   11 1
    17   10   45 1
    18   11   19 1
    19   11   12 1
    20   11   46 1
    21   12   13 1
    22   12   47 1
    23   12   48 1
    24   13   18 ar
    25   13   14 ar
    26   14   15 ar
    27   14   49 1
    28   15   16 ar
    29   15   50 1
    30   16   17 ar
    31   16   51 1
    32   17   18 ar
    33   17   52 1
    34   18   19 1
    35   19   20 1
    36   19   53 1
    37   20   21 1
    38   20   54 1
    39   20   55 1
    40   21   35 ar
    41   21   22 ar
    42   22   23 ar
    43   22   56 1
    44   23   24 ar
    45   23   57 1
    46   24   34 ar
    47   24   25 1
    48   25   26 1
    49   26   27 1
    50   26   32 1
    51   26   58 1
    52   27   28 1
    53   27   59 1
    54   27   60 1
    55   28   29 1
    56   28   61 1
    57   28   62 1
    58   29   30 1
    59   29   31 2
    60   32   33 1
    61   32   63 1
    62   32   64 1
    63   33   34 1
    64   34   35 ar
    65   35   36 1
    66   36   37 1
    67   36   38 2
