AVX38785_1, 3
##########                 Name:           AVX38785_0
##########          Protonation:                   23
##########               SMILES:   CN(Cc1ccccc1C(=O)NCc2ccccc2)Cc3ccc4c(c3C(=O)[O-])OC[C@@H](O4)CCC(=O)[O-]
##########            Long Name:   ]methyl]-2-(3-oxido-3-oxo-propyl)-2,3-dihydro-1,4-benzodioxine-5-carboxylate
##########          FlexRecCode: 1
##########               Number:                  381
##########   Ligand Source File: /raid1/people/rgc/Examples/sampl4/screening/ligands/build_1//sampl4-hivint-00000
##########           GlobalRank: 106
##########                 Rank:                    1
##########               Setnum:                   14
##########             Matchnum:                 3490
##########                Cloud:                    1
##########        Electrostatic:           -31.469551
##########        Van der Waals:           -15.654734
##########  Ligand Polar Desolv:            26.402443
########## Ligand Apolar Desolv:            -2.213043
##########      Internal Energy:             0.000000
##########      Receptor Energy: 0.0
########## Receptor Desolvation:             0.000000
########## Receptor Hydrophobic:             0.000000
##########         Total Energy: -22.93
##########        Ligand Charge:            -2.000000
##########            Arbitrary:    +999.9990
##########     heavy atom count:   38
##########           pose count:    1
##########        Ligand Energy:             0.000000
# num electro vdwattr vdwrepu polsolv apolsol rdesolv rhydroe totalscore fullpol fullapo
#   1    0.00   -0.01    0.00    0.00    0.00    0.00    0.00      -0.02   -0.56   -0.43
#   2    0.01   -0.03    0.00    0.20    0.03    0.00    0.00       0.21   13.51    1.96
#   3    0.00   -0.05    0.00   -0.07   -0.01    0.00    0.00      -0.12   -2.36   -0.31
#   4    0.00   -0.11    0.00    0.04   -0.01    0.00    0.00      -0.08    1.06   -0.32
#   5   -0.01   -0.08    0.00    0.05   -0.01    0.00    0.00      -0.05    1.86   -0.42
#   6   -0.01   -0.10    0.00    0.02   -0.02    0.00    0.00      -0.10    0.59   -0.47
#   7   -0.01   -0.21    0.01    0.06   -0.04    0.00    0.00      -0.18    0.76   -0.47
#   8    0.00   -0.33    0.05    0.08   -0.05    0.00    0.00      -0.25    0.80   -0.44
#   9    0.00   -0.20    0.01    0.20   -0.03    0.00    0.00      -0.02    2.62   -0.41
#  10    0.07   -0.22    0.01   -0.97   -0.06    0.00    0.00      -1.17  -11.24   -0.65
#  11   -0.03   -0.13    0.00    0.96    0.02    0.00    0.00       0.81   16.58    0.31
#  12   -0.31   -0.34    0.02    1.53    0.30    0.00    0.00       1.21   11.69    2.32
#  13    0.19   -0.23    0.01   -0.45   -0.06    0.00    0.00      -0.54   -3.24   -0.44
#  14   -0.22   -0.60    0.04    0.40   -0.08    0.00    0.00      -0.46    1.85   -0.37
#  15   -0.36   -0.65    0.03    0.36   -0.11    0.00    0.00      -0.73    1.44   -0.45
#  16   -0.62   -0.88    0.07    0.40   -0.16    0.00    0.00      -1.19    1.16   -0.47
#  17   -0.42   -1.19    0.10    0.42   -0.19    0.00    0.00      -1.28    1.04   -0.47
#  18   -0.25   -2.14    0.69    0.63   -0.19    0.00    0.00      -1.25    1.57   -0.47
#  19   -0.22   -1.52    0.63    0.62   -0.14    0.00    0.00      -0.64    1.96   -0.45
#  20    0.00   -0.01    0.00   -0.08    0.00    0.00    0.00      -0.10   -5.78   -0.28
#  21    0.00   -0.05    0.00    0.03   -0.01    0.00    0.00      -0.03    1.28   -0.39
#  22    0.01   -0.06    0.00    0.05   -0.01    0.00    0.00      -0.01    2.00   -0.38
#  23    0.00   -0.13    0.00    0.10   -0.02    0.00    0.00      -0.06    2.19   -0.46
#  24    0.01   -0.17    0.00   -0.02   -0.02    0.00    0.00      -0.19   -0.36   -0.30
#  25   -0.51   -0.27    0.01    1.18    0.07    0.00    0.00       0.48    9.93    0.62
#  26    0.19   -0.33    0.02   -0.38   -0.02    0.00    0.00      -0.52   -2.16   -0.12
#  27   -0.64   -0.63    0.07    0.45   -0.05    0.00    0.00      -0.80    1.63   -0.18
#  28   -2.31   -0.66    0.05    1.62   -0.08    0.00    0.00      -1.39    4.86   -0.24
#  29   12.74   -2.20    0.50   -8.14   -0.07    0.00    0.00       2.83  -18.86   -0.16
#  30  -23.46   -5.51    4.35   15.99   -0.20    0.00    0.00      -8.84   32.74   -0.41
#  31  -20.44   -2.58    1.69   15.13   -0.19    0.00    0.00      -6.39   34.87   -0.43
#  32    0.03   -0.33    0.03   -0.07   -0.02    0.00    0.00      -0.35   -0.46   -0.12
#  33   -0.19   -0.19    0.01    1.13    0.02    0.00    0.00       0.77   12.76    0.27
#  34    0.02   -0.13    0.00   -0.08   -0.01    0.00    0.00      -0.20   -1.91   -0.30
#  35    0.00   -0.07    0.00    0.24   -0.01    0.00    0.00       0.16    9.45   -0.41
#  36    0.04   -0.05    0.00   -0.48    0.00    0.00    0.00      -0.50  -23.29   -0.17
#  37   -0.03   -0.02    0.00    0.47    0.00    0.00    0.00       0.40   34.51   -0.33
#  38   -0.08   -0.07    0.00    1.31   -0.02    0.00    0.00       1.14   37.39   -0.59
#  39    0.00    0.00    0.00    0.00    0.00    0.00    0.00       0.00   -0.69   -0.28
#  40    0.00    0.00    0.00    0.00    0.00    0.00    0.00      -0.01   -0.90   -0.22
#  41    0.00    0.00    0.00   -0.01    0.00    0.00    0.00      -0.01   -2.37   -0.24
#  42    0.01   -0.02    0.00   -0.03    0.00    0.00    0.00      -0.05   -1.50   -0.20
#  43    0.00   -0.01    0.00   -0.01    0.00    0.00    0.00      -0.02   -0.72   -0.27
#  44    0.01   -0.01    0.00   -0.02    0.00    0.00    0.00      -0.02   -1.83   -0.28
#  45    0.01   -0.01    0.00   -0.02    0.00    0.00    0.00      -0.02   -1.24   -0.28
#  46    0.01   -0.04    0.00   -0.04   -0.01    0.00    0.00      -0.08   -1.02   -0.28
#  47    0.01   -0.11    0.03   -0.15   -0.02    0.00    0.00      -0.24   -1.50   -0.22
#  48    0.10   -0.01    0.00   -0.54    0.04    0.00    0.00      -0.40   -5.39    0.43
#  49    0.04   -0.06    0.00   -0.03   -0.02    0.00    0.00      -0.06   -0.50   -0.28
#  50    0.12   -0.06    0.00   -0.06   -0.02    0.00    0.00      -0.01   -1.05   -0.28
#  51    0.50   -0.14    0.01   -0.23   -0.04    0.00    0.00       0.10   -1.62   -0.28
#  52    0.95   -0.30    0.14   -0.32   -0.07    0.00    0.00       0.40   -1.28   -0.28
#  53    0.49   -0.28    0.03   -0.37   -0.09    0.00    0.00      -0.22   -1.23   -0.28
#  54    0.06   -1.12    1.04   -0.73   -0.13    0.00    0.00      -0.89   -1.55   -0.28
#  55    0.28   -0.61    1.07   -0.49   -0.08    0.00    0.00       0.18   -1.67   -0.28
#  56    0.00    0.00    0.00    0.00    0.00    0.00    0.00      -0.01   -0.22   -0.22
#  57    0.00    0.00    0.00   -0.01    0.00    0.00    0.00      -0.01   -0.73   -0.25
#  58   -0.02   -0.01    0.00   -0.07    0.00    0.00    0.00      -0.10   -5.10   -0.22
#  59   -0.03   -0.04    0.00   -0.15   -0.01    0.00    0.00      -0.23   -4.92   -0.28
#  60    0.35   -0.12    0.01   -0.31   -0.03    0.00    0.00      -0.10   -2.65   -0.28
#  61    0.50   -0.29    0.07   -0.42   -0.07    0.00    0.00      -0.21   -1.77   -0.28
#  62    0.59   -0.39    0.22   -0.75   -0.07    0.00    0.00      -0.40   -3.19   -0.28
#  63    0.59   -0.13    0.00   -0.36   -0.03    0.00    0.00       0.07   -3.18   -0.28
#  64    0.62   -0.24    0.04   -0.50   -0.05    0.00    0.00      -0.13   -2.66   -0.27
#  65    0.16   -0.28    0.14   -0.77   -0.04    0.00    0.00      -0.79   -4.81   -0.28
#  66    0.03   -0.08    0.00   -0.16   -0.02    0.00    0.00      -0.22   -2.48   -0.28

@<TRIPOS>MOLECULE
       AVX38785_0        23
   66    69     0     0     0



@<TRIPOS>ATOM
      1 C1          4.3286   -53.1520     2.7133 C.3        1           0.0198
      2 N1          5.3458   -52.2982     2.0852 N.3        1          -0.5251
      3 C2          4.8219   -51.6634     0.8684 C.3        1           0.0875
      4 C3          3.9813   -50.4708     1.2460 C.ar       1          -0.0076
      5 C4          2.6296   -50.6230     1.4770 C.ar       1          -0.1232
      6 C5          1.8567   -49.5293     1.8237 C.ar       1          -0.0984
      7 C6          2.4326   -48.2766     1.9412 C.ar       1          -0.1354
      8 C7          3.7830   -48.1109     1.7136 C.ar       1          -0.0914
      9 C8          4.5696   -49.2113     1.3685 C.ar       1          -0.1122
     10 C9          6.0186   -49.0420     1.1285 C.2        1           0.5493
     11 O1          6.7003   -50.0011     0.8238 O.2        1          -0.4859
     12 N2          6.5836   -47.8243     1.2477 N.am       1          -0.7302
     13 C10         8.0195   -47.6566     1.0100 C.3        1           0.1609
     14 C11         8.2828   -46.2697     0.4824 C.ar       1          -0.1022
     15 C12         9.4888   -45.6475     0.7453 C.ar       1          -0.1025
     16 C13         9.7302   -44.3753     0.2613 C.ar       1          -0.1256
     17 C14         8.7658   -43.7256    -0.4860 C.ar       1          -0.1170
     18 C15         7.5601   -44.3482    -0.7498 C.ar       1          -0.1216
     19 C16         7.3204   -45.6220    -0.2694 C.ar       1          -0.0979
     20 C17         6.5680   -53.0604     1.7969 C.3        1           0.1282
     21 C18         7.7246   -52.1095     1.6262 C.ar       1          -0.0441
     22 C19         7.9048   -51.0763     2.5186 C.ar       1          -0.1193
     23 C20         8.9660   -50.1990     2.3687 C.ar       1          -0.1271
     24 C21         9.8592   -50.3498     1.3195 C.ar       1           0.0245
     25 O2         10.8990   -49.4794     1.1976 O.3        1          -0.3053
     26 C22        11.5568   -49.4372    -0.0735 C.3        1           0.0508
     27 C23        12.8881   -48.6948     0.0589 C.3        1          -0.0805
     28 C24        12.6297   -47.2668     0.5437 C.3        1          -0.1790
     29 C25        13.9410   -46.5357     0.6742 C.2        1           0.4921
     30 O3         14.7990   -46.9536     1.4327 O.co2      1          -0.7017
     31 O4         14.1436   -45.5263     0.0210 O.co2      1          -0.7118
     32 C26        11.8119   -50.8798    -0.5309 C.3        1           0.0197
     33 O5         10.5497   -51.5485    -0.6291 O.3        1          -0.2622
     34 C27         9.6900   -51.3857     0.4088 C.ar       1           0.0811
     35 C28         8.6193   -52.2788     0.5641 C.ar       1          -0.1423
     36 C29         8.4348   -53.3850    -0.3891 C.2        1           0.5260
     37 O6          8.9612   -54.4689    -0.1778 O.co2      1          -0.6949
     38 O7          7.7550   -53.2204    -1.3928 O.co2      1          -0.6702
     39 H1          4.7427   -53.6096     3.6117 H          1           0.0191
     40 H2          3.4615   -52.5478     2.9801 H          1           0.0703
     41 H3          4.0269   -53.9320     2.0142 H          1           0.0557
     42 H4          5.6524   -51.3386     0.2417 H          1           0.1098
     43 H5          4.2106   -52.3795     0.3194 H          1           0.0322
     44 H6          2.1739   -51.5979     1.3866 H          1           0.1258
     45 H7          0.7990   -49.6536     2.0031 H          1           0.1220
     46 H8          1.8234   -47.4267     2.2116 H          1           0.1223
     47 H9          4.2312   -47.1327     1.8057 H          1           0.1207
     48 H10         6.0397   -47.0588     1.4909 H          1           0.3941
     49 H11         8.5616   -47.7986     1.9448 H          1           0.0820
     50 H12         8.3553   -48.3928     0.2797 H          1           0.0763
     51 H13        10.2423   -46.1551     1.3293 H          1           0.1231
     52 H14        10.6723   -43.8889     0.4675 H          1           0.1208
     53 H15         8.9541   -42.7314    -0.8635 H          1           0.1199
     54 H16         6.8064   -43.8405    -1.3334 H          1           0.1236
     55 H17         6.3799   -46.1099    -0.4786 H          1           0.1278
     56 H18         6.7756   -53.7404     2.6231 H          1           0.0685
     57 H19         6.4307   -53.6339     0.8801 H          1           0.0889
     58 H20         7.2148   -50.9492     3.3397 H          1           0.1317
     59 H21         9.0981   -49.3917     3.0738 H          1           0.1183
     60 H22        10.9225   -48.9277    -0.7988 H          1           0.0734
     61 H23        13.5231   -49.2132     0.7773 H          1           0.0705
     62 H24        13.3854   -48.6651    -0.9106 H          1           0.0801
     63 H25        11.9944   -46.7486    -0.1747 H          1           0.0546
     64 H26        12.1323   -47.2967     1.5132 H          1           0.0643
     65 H27        12.3025   -50.8756    -1.5041 H          1           0.1126
     66 H28        12.4425   -51.3901     0.1973 H          1           0.0667
@<TRIPOS>BOND
     1    1    2 1
     2    1   39 1
     3    1   40 1
     4    1   41 1
     5    2    3 1
     6    2   20 1
     7    3    4 1
     8    3   42 1
     9    3   43 1
    10    4    9 ar
    11    4    5 ar
    12    5    6 ar
    13    5   44 1
    14    6    7 ar
    15    6   45 1
    16    7    8 ar
    17    7   46 1
    18    8    9 ar
    19    8   47 1
    20    9   10 1
    21   10   11 2
    22   10   12 am
    23   12   13 1
    24   12   48 1
    25   13   14 1
    26   13   49 1
    27   13   50 1
    28   14   19 ar
    29   14   15 ar
    30   15   16 ar
    31   15   51 1
    32   16   17 ar
    33   16   52 1
    34   17   18 ar
    35   17   53 1
    36   18   19 ar
    37   18   54 1
    38   19   55 1
    39   20   21 1
    40   20   56 1
    41   20   57 1
    42   21   35 ar
    43   21   22 ar
    44   22   23 ar
    45   22   58 1
    46   23   24 ar
    47   23   59 1
    48   24   34 ar
    49   24   25 1
    50   25   26 1
    51   26   27 1
    52   26   32 1
    53   26   60 1
    54   27   28 1
    55   27   61 1
    56   27   62 1
    57   28   29 1
    58   28   63 1
    59   28   64 1
    60   29   30 1
    61   29   31 2
    62   32   33 1
    63   32   65 1
    64   32   66 1
    65   33   34 1
    66   34   35 ar
    67   35   36 1
    68   36   37 1
    69   36   38 2
