AVX38708_1, 3
##########                 Name:           AVX38708_0
##########          Protonation:                   76
##########               SMILES:   C[NH+](Cc1ccccc1C(=O)NCc2ccccc2)Cc3ccc4c(c3C(=O)[O-])OCO4
##########            Long Name:   arbamoyl)phenyl]methyl-methyl-ammonio]methyl]-1,3-benzodioxole-4-carboxylate
##########          FlexRecCode: 1
##########               Number:                  355
##########   Ligand Source File: /raid1/people/rgc/Examples/sampl4/screening/ligands/build_1//sampl4-hivint-00000
##########           GlobalRank: 13
##########                 Rank:                    1
##########               Setnum:                    5
##########             Matchnum:                 5061
##########                Cloud:                    1
##########        Electrostatic:           -24.040825
##########        Van der Waals:           -27.026257
##########  Ligand Polar Desolv:            17.736570
########## Ligand Apolar Desolv:            -2.975422
##########      Internal Energy:             0.000000
##########      Receptor Energy: 0.0
########## Receptor Desolvation:             0.000000
########## Receptor Hydrophobic:             0.000000
##########         Total Energy: -36.31
##########        Ligand Charge:             0.000000
##########            Arbitrary:    +999.9990
##########     heavy atom count:   32
##########           pose count:    1
##########        Ligand Energy:             0.000000
# num electro vdwattr vdwrepu polsolv apolsol rdesolv rhydroe totalscore fullpol fullapo
#   1   -0.39   -1.35    0.53   -0.44   -0.15    0.00    0.00      -1.81   -1.21   -0.41
#   2   -1.79   -0.60    0.04   -0.92    0.04    0.00    0.00      -3.22   -3.79    0.16
#   3    1.89   -0.01    0.00    0.49    0.03    0.00    0.00       2.40    5.10    0.33
#   4    0.03   -0.49    0.08    0.08   -0.06    0.00    0.00      -0.35    0.41   -0.30
#   5   -0.10   -0.31    0.01   -0.10   -0.03    0.00    0.00      -0.54   -0.87   -0.30
#   6   -0.11   -0.22    0.00   -0.09   -0.03    0.00    0.00      -0.45   -1.20   -0.40
#   7   -0.02   -0.21    0.01   -0.09   -0.04    0.00    0.00      -0.36   -1.14   -0.47
#   8   -0.01   -0.35    0.02   -0.18   -0.06    0.00    0.00      -0.58   -1.31   -0.47
#   9   -0.05   -0.51    0.05   -0.17   -0.08    0.00    0.00      -0.76   -0.93   -0.44
#  10   -0.11   -0.41    0.02   -0.22   -0.06    0.00    0.00      -0.78   -1.35   -0.40
#  11    0.25   -0.69    0.14    0.78   -0.13    0.00    0.00       0.36    3.91   -0.63
#  12   -0.48   -0.72    0.07   -0.68    0.08    0.00    0.00      -1.73   -2.48    0.29
#  13    0.12   -0.68    0.16   -0.92    0.43    0.00    0.00      -0.89   -5.02    2.32
#  14   -0.11   -0.66    0.12    0.24   -0.14    0.00    0.00      -0.55    0.77   -0.44
#  15    0.11   -0.77    0.08   -0.12   -0.10    0.00    0.00      -0.80   -0.44   -0.37
#  16    0.01   -0.86    0.23   -0.07   -0.09    0.00    0.00      -0.78   -0.36   -0.45
#  17    0.02   -0.65    0.15   -0.06   -0.07    0.00    0.00      -0.61   -0.38   -0.47
#  18    0.04   -0.51    0.04   -0.06   -0.08    0.00    0.00      -0.57   -0.36   -0.47
#  19    0.14   -1.03    0.20   -0.12   -0.12    0.00    0.00      -0.94   -0.47   -0.47
#  20    0.19   -1.06    0.15   -0.13   -0.13    0.00    0.00      -0.99   -0.44   -0.45
#  21    0.54   -0.44    0.02    0.05   -0.06    0.00    0.00       0.10    0.20   -0.26
#  22   -1.01   -0.89    0.06    0.02   -0.13    0.00    0.00      -1.95    0.06   -0.39
#  23   -1.48   -1.06    0.09   -0.21   -0.12    0.00    0.00      -2.77   -0.59   -0.34
#  24   -0.73   -1.66    0.21   -0.09   -0.22    0.00    0.00      -2.49   -0.19   -0.47
#  25    0.24   -1.81    0.31    0.01   -0.15    0.00    0.00      -1.39    0.03   -0.33
#  26   -2.27   -2.46    1.15    0.94    0.26    0.00    0.00      -2.39    1.88    0.52
#  27    2.30   -1.11    0.14   -0.65    0.01    0.00    0.00       0.69   -1.33    0.02
#  28   -5.79   -1.91    0.70    2.53    0.16    0.00    0.00      -4.31    5.53    0.34
#  29    1.82   -1.89    0.77   -0.11   -0.14    0.00    0.00       0.46   -0.25   -0.32
#  30   -2.09   -1.40    0.19    0.95   -0.16    0.00    0.00      -2.51    2.41   -0.41
#  31   14.55   -2.77    1.23   -4.63   -0.07    0.00    0.00       8.30  -10.59   -0.17
#  32  -22.73   -5.82    5.17    7.29   -0.16    0.00    0.00     -16.25   14.45   -0.32
#  33  -14.78   -3.05    2.14    8.98   -0.22    0.00    0.00      -6.94   22.52   -0.56
#  34    1.05   -0.99    1.20    0.91   -0.11    0.00    0.00       2.05    2.23   -0.28
#  35    1.40   -0.46    0.41    0.55   -0.06    0.00    0.00       1.84    1.73   -0.18
#  36    0.06   -0.45    0.26    1.08   -0.07    0.00    0.00       0.87    3.19   -0.22
#  37    0.03   -0.17    0.02    0.12   -0.03    0.00    0.00      -0.03    0.79   -0.20
#  38   -0.23   -0.30    0.22    0.35   -0.04    0.00    0.00       0.00    2.22   -0.27
#  39    0.18   -0.04    0.00    0.10   -0.01    0.00    0.00       0.23    2.94   -0.28
#  40    0.01   -0.03    0.00    0.05   -0.01    0.00    0.00       0.03    2.16   -0.28
#  41    0.01   -0.07    0.00    0.13   -0.02    0.00    0.00       0.05    1.87   -0.28
#  42    0.03   -0.17    0.04    0.29   -0.04    0.00    0.00       0.16    1.80   -0.22
#  43   -0.05   -0.01    0.00    0.28    0.03    0.00    0.00       0.26    3.86    0.43
#  44   -0.12   -0.19    0.01    0.08   -0.07    0.00    0.00      -0.29    0.32   -0.28
#  45    0.00   -0.46    0.37    0.04   -0.09    0.00    0.00      -0.14    0.13   -0.28
#  46   -0.01   -0.17    0.02    0.08   -0.05    0.00    0.00      -0.11    0.51   -0.28
#  47   -0.02   -0.09    0.01    0.05   -0.03    0.00    0.00      -0.08    0.52   -0.28
#  48   -0.04   -0.06    0.00    0.03   -0.01    0.00    0.00      -0.08    0.55   -0.28
#  49   -0.11   -0.42    0.24    0.15   -0.06    0.00    0.00      -0.20    0.69   -0.28
#  50   -0.38   -0.38    0.11    0.27   -0.08    0.00    0.00      -0.46    0.88   -0.28
#  51    1.50   -0.21    0.02   -0.01   -0.04    0.00    0.00       1.27   -0.06   -0.23
#  52    0.86   -0.09    0.00   -0.02   -0.02    0.00    0.00       0.74   -0.24   -0.26
#  53    0.87   -0.21    0.04    0.61   -0.04    0.00    0.00       1.27    3.03   -0.18
#  54    0.66   -0.53    0.13    0.65   -0.12    0.00    0.00       0.79    1.50   -0.28
#  55    0.84   -0.25    0.02   -0.16   -0.07    0.00    0.00       0.38   -0.60   -0.28
#  56    1.20   -0.45    0.11   -0.20   -0.11    0.00    0.00       0.55   -0.49   -0.28

@<TRIPOS>MOLECULE
       AVX38708_0        76
   56    59     0     0     0



@<TRIPOS>ATOM
      1 C1         10.8162   -45.0055     1.7644 C.3        1          -0.0648
      2 N1         10.2892   -46.1918     1.0768 N.4        1          -0.3791
      3 H1          9.6950   -45.9024     0.3144 H          1           0.4148
      4 C2          9.5112   -47.0015     2.0238 C.3        1           0.0370
      5 C3          8.5857   -47.9148     1.2618 C.ar       1          -0.0861
      6 C4          9.0069   -49.1764     0.8951 C.ar       1          -0.0991
      7 C5          8.1585   -50.0160     0.1956 C.ar       1          -0.0859
      8 C6          6.8832   -49.5972    -0.1407 C.ar       1          -0.1003
      9 C7          6.4497   -48.3386     0.2203 C.ar       1          -0.0802
     10 C8          7.2988   -47.4884     0.9308 C.ar       1          -0.1220
     11 C9          6.8388   -46.1400     1.3260 C.2        1           0.5538
     12 O1          7.4300   -45.1552     0.9282 O.2        1          -0.5451
     13 N2          5.7638   -46.0027     2.1272 N.am       1          -0.7073
     14 C10         5.3080   -44.6666     2.5188 C.3        1           0.1584
     15 C11         4.6620   -44.7349     3.8787 C.ar       1          -0.1192
     16 C12         3.3064   -44.9826     3.9882 C.ar       1          -0.0991
     17 C13         2.7139   -45.0451     5.2356 C.ar       1          -0.1204
     18 C14         3.4769   -44.8603     6.3733 C.ar       1          -0.1066
     19 C15         4.8326   -44.6133     6.2637 C.ar       1          -0.1207
     20 C16         5.4259   -44.5551     5.0166 C.ar       1          -0.0994
     21 C17        11.4054   -46.9898     0.5520 C.3        1           0.0664
     22 C18        12.2036   -46.1592    -0.4196 C.ar       1          -0.0817
     23 C19        11.5571   -45.3937    -1.3645 C.ar       1          -0.1582
     24 C20        12.2830   -44.6267    -2.2621 C.ar       1          -0.0897
     25 C21        13.6655   -44.6211    -2.2182 C.ar       1           0.0233
     26 O2         14.6043   -43.9733    -2.9644 O.3        1          -0.3099
     27 C22        15.8373   -44.6831    -2.7724 C.3        1           0.2033
     28 O3         15.6694   -45.2022    -1.4447 O.3        1          -0.2691
     29 C23        14.3349   -45.3895    -1.2681 C.ar       1           0.0959
     30 C24        13.6021   -46.1608    -0.3580 C.ar       1          -0.1039
     31 C25        14.2978   -46.9723     0.6537 C.2        1           0.5195
     32 O4         14.5582   -46.4932     1.7488 O.co2      1          -0.6840
     33 O5         14.6157   -48.1260     0.3996 O.co2      1          -0.6463
     34 H2         11.4582   -45.3181     2.5879 H          1           0.1237
     35 H3         11.3936   -44.4047     1.0617 H          1           0.1287
     36 H4          9.9881   -44.4134     2.1538 H          1           0.1125
     37 H5         10.1890   -47.5981     2.6343 H          1           0.1602
     38 H6          8.9253   -46.3452     2.6673 H          1           0.1330
     39 H7         10.0011   -49.5093     1.1543 H          1           0.1426
     40 H8          8.4931   -51.0025    -0.0893 H          1           0.1402
     41 H9          6.2261   -50.2573    -0.6874 H          1           0.1399
     42 H10         5.4540   -48.0129    -0.0428 H          1           0.1345
     43 H11         5.2920   -46.7885     2.4447 H          1           0.4049
     44 H12         6.1602   -43.9881     2.5551 H          1           0.0852
     45 H13         4.5838   -44.3018     1.7905 H          1           0.0858
     46 H14         2.7103   -45.1271     3.0993 H          1           0.1248
     47 H15         1.6546   -45.2380     5.3212 H          1           0.1266
     48 H16         3.0137   -44.9084     7.3478 H          1           0.1259
     49 H17         5.4286   -44.4686     7.1526 H          1           0.1264
     50 H18         6.4858   -44.3659     4.9312 H          1           0.1244
     51 H19        12.0473   -47.3025     1.3756 H          1           0.1615
     52 H20        11.0144   -47.8700     0.0418 H          1           0.1478
     53 H21        10.4779   -45.3915    -1.4066 H          1           0.1200
     54 H22        11.7664   -44.0305    -2.9997 H          1           0.1370
     55 H23        15.9397   -45.4907    -3.4972 H          1           0.1344
     56 H24        16.6896   -44.0052    -2.8216 H          1           0.0855
@<TRIPOS>BOND
     1    1    2 1
     2    1   34 1
     3    1   35 1
     4    1   36 1
     5    2    3 1
     6    2    4 1
     7    2   21 1
     8    4    5 1
     9    4   37 1
    10    4   38 1
    11    5   10 ar
    12    5    6 ar
    13    6    7 ar
    14    6   39 1
    15    7    8 ar
    16    7   40 1
    17    8    9 ar
    18    8   41 1
    19    9   10 ar
    20    9   42 1
    21   10   11 1
    22   11   12 2
    23   11   13 am
    24   13   14 1
    25   13   43 1
    26   14   15 1
    27   14   44 1
    28   14   45 1
    29   15   20 ar
    30   15   16 ar
    31   16   17 ar
    32   16   46 1
    33   17   18 ar
    34   17   47 1
    35   18   19 ar
    36   18   48 1
    37   19   20 ar
    38   19   49 1
    39   20   50 1
    40   21   22 1
    41   21   51 1
    42   21   52 1
    43   22   30 ar
    44   22   23 ar
    45   23   24 ar
    46   23   53 1
    47   24   25 ar
    48   24   54 1
    49   25   29 ar
    50   25   26 1
    51   26   27 1
    52   27   28 1
    53   27   55 1
    54   27   56 1
    55   28   29 1
    56   29   30 ar
    57   30   31 1
    58   31   32 1
    59   31   33 2
