AVX38788_1, 3
##########                 Name:           AVX38788_0
##########          Protonation:                   77
##########               SMILES:   C[NH+](Cc1ccccc1C(=O)NCC2CCC2)Cc3ccc4c(c3C(=O)[O-])OC[C@H](O4)CCC(=O)[O-]
##########            Long Name:   ]methyl]-2-(3-oxido-3-oxo-propyl)-2,3-dihydro-1,4-benzodioxine-5-carboxylate
##########          FlexRecCode: 1
##########               Number:                  233
##########   Ligand Source File: /raid1/people/rgc/Examples/sampl4/screening/ligands/build_1//sampl4-hivint-00000
##########           GlobalRank: 131
##########                 Rank:                    1
##########               Setnum:                   46
##########             Matchnum:                 9845
##########                Cloud:                    1
##########        Electrostatic:           -30.045713
##########        Van der Waals:            -5.821549
##########  Ligand Polar Desolv:            20.745394
########## Ligand Apolar Desolv:            -2.210480
##########      Internal Energy:             0.000000
##########      Receptor Energy: 0.0
########## Receptor Desolvation:             0.000000
########## Receptor Hydrophobic:             0.000000
##########         Total Energy: -17.33
##########        Ligand Charge:            -1.000000
##########            Arbitrary:    +999.9990
##########     heavy atom count:   36
##########           pose count:    1
##########        Ligand Energy:             0.000000
# num electro vdwattr vdwrepu polsolv apolsol rdesolv rhydroe totalscore fullpol fullapo
#   1    0.00   -0.22    0.01   -0.07   -0.05    0.00    0.00      -0.34   -0.55   -0.41
#   2   -0.02   -0.19    0.01   -0.13    0.02    0.00    0.00      -0.32   -1.29    0.16
#   3    0.02    0.00    0.00    0.04    0.01    0.00    0.00       0.07    1.76    0.32
#   4    0.00   -0.10    0.00    0.01   -0.02    0.00    0.00      -0.11    0.16   -0.30
#   5    0.00   -0.05    0.00   -0.01   -0.01    0.00    0.00      -0.07   -0.48   -0.30
#   6    0.00   -0.04    0.00   -0.01   -0.01    0.00    0.00      -0.06   -0.76   -0.40
#   7    0.00   -0.01    0.00   -0.01    0.00    0.00    0.00      -0.03   -0.69   -0.47
#   8    0.00    0.00    0.00    0.00    0.00    0.00    0.00      -0.01   -0.77   -0.47
#   9    0.01   -0.01    0.00    0.00    0.00    0.00    0.00      -0.01   -0.51   -0.44
#  10    0.01   -0.03    0.00   -0.01   -0.01    0.00    0.00      -0.03   -0.60   -0.40
#  11   -0.07   -0.05    0.00    0.01   -0.01    0.00    0.00      -0.12    0.51   -0.63
#  12    0.04   -0.07    0.00    0.06    0.01    0.00    0.00       0.04    1.75    0.29
#  13    0.17   -0.05    0.00   -0.03    0.05    0.00    0.00       0.14   -1.26    2.31
#  14   -0.05   -0.08    0.00   -0.01   -0.02    0.00    0.00      -0.15   -0.18   -0.42
#  15    0.07   -0.22    0.01    0.00   -0.03    0.00    0.00      -0.17   -0.03   -0.24
#  16    0.08   -0.18    0.01    0.00   -0.03    0.00    0.00      -0.13   -0.01   -0.33
#  17    0.10   -0.31    0.02    0.03   -0.05    0.00    0.00      -0.20    0.21   -0.34
#  18    0.10   -0.74    0.16    0.08   -0.07    0.00    0.00      -0.47    0.37   -0.33
#  19    0.02   -0.44    0.07   -0.13   -0.05    0.00    0.00      -0.53   -0.62   -0.26
#  20   -0.13   -0.62    0.07    0.07   -0.08    0.00    0.00      -0.69    0.36   -0.39
#  21   -0.51   -1.77    0.96    0.07   -0.10    0.00    0.00      -1.35    0.24   -0.34
#  22   -0.47   -1.44    1.04    0.17   -0.13    0.00    0.00      -0.83    0.60   -0.46
#  23    0.22   -0.55    0.03    0.03   -0.06    0.00    0.00      -0.34    0.13   -0.30
#  24   -2.26   -0.55    0.02    1.66    0.16    0.00    0.00      -0.96    6.35    0.62
#  25    0.51   -0.74    0.09   -0.52   -0.04    0.00    0.00      -0.70   -1.69   -0.12
#  26   -0.71   -0.53    0.04    0.38   -0.05    0.00    0.00      -0.88    1.43   -0.18
#  27   -1.83   -0.86    0.22    1.05   -0.07    0.00    0.00      -1.49    3.51   -0.24
#  28   10.02   -1.69    0.41   -5.94   -0.06    0.00    0.00       2.74  -15.53   -0.16
#  29  -27.19   -5.01   11.50   12.27   -0.18    0.00    0.00      -8.61   28.63   -0.41
#  30  -12.77   -1.32    0.16   12.22   -0.17    0.00    0.00      -1.87   30.30   -0.43
#  31    0.04   -1.55    0.81   -0.12   -0.04    0.00    0.00      -0.86   -0.41   -0.12
#  32   -0.15   -0.59    0.06    1.63    0.05    0.00    0.00       1.00    8.71    0.27
#  33    0.18   -0.41    0.01   -0.11   -0.04    0.00    0.00      -0.37   -0.77   -0.30
#  34   -0.10   -0.29    0.01    0.51   -0.05    0.00    0.00       0.08    4.32   -0.41
#  35    0.03   -0.17    0.00   -0.88   -0.01    0.00    0.00      -1.03  -14.21   -0.17
#  36    0.20   -0.16    0.00    1.34   -0.02    0.00    0.00       1.36   18.97   -0.32
#  37    0.01   -0.08    0.00    1.00   -0.02    0.00    0.00       0.91   27.46   -0.59
#  38    0.00   -0.14    0.02    0.18   -0.04    0.00    0.00       0.02    1.22   -0.28
#  39    0.01   -0.08    0.00    0.05   -0.01    0.00    0.00      -0.03    0.67   -0.18
#  40    0.01   -0.03    0.00    0.04    0.00    0.00    0.00       0.02    1.87   -0.22
#  41    0.01   -0.03    0.00    0.00   -0.01    0.00    0.00      -0.02    0.10   -0.20
#  42    0.01   -0.05    0.00    0.04   -0.01    0.00    0.00       0.00    1.15   -0.27
#  43    0.01   -0.01    0.00    0.02    0.00    0.00    0.00       0.02    1.87   -0.28
#  44    0.00    0.00    0.00    0.01    0.00    0.00    0.00       0.01    1.46   -0.28
#  45   -0.01    0.00    0.00    0.00    0.00    0.00    0.00       0.00    1.32   -0.28
#  46   -0.02    0.00    0.00    0.00    0.00    0.00    0.00      -0.01    1.25   -0.22
#  47   -0.10    0.00    0.00    0.02    0.00    0.00    0.00      -0.08    2.16    0.43
#  48   -0.03   -0.03    0.00    0.00   -0.01    0.00    0.00      -0.07   -0.15   -0.28
#  49   -0.03   -0.02    0.00    0.00    0.00    0.00    0.00      -0.05   -0.17   -0.27
#  50   -0.05   -0.07    0.00    0.02   -0.02    0.00    0.00      -0.12    0.27   -0.28
#  51   -0.04   -0.02    0.00    0.00    0.00    0.00    0.00      -0.06   -0.09   -0.27
#  52   -0.05   -0.09    0.01    0.01   -0.02    0.00    0.00      -0.14    0.15   -0.28
#  53   -0.04   -0.04    0.00    0.00   -0.01    0.00    0.00      -0.08   -0.14   -0.28
#  54   -0.08   -0.16    0.03   -0.01   -0.04    0.00    0.00      -0.26   -0.05   -0.28
#  55   -0.07   -0.72    0.67   -0.05   -0.09    0.00    0.00      -0.26   -0.18   -0.28
#  56   -0.06   -0.18    0.03   -0.04   -0.04    0.00    0.00      -0.31   -0.28   -0.28
#  57    0.01   -0.27    0.05   -0.25   -0.06    0.00    0.00      -0.51   -0.98   -0.23
#  58    0.01   -0.13    0.03   -0.09   -0.03    0.00    0.00      -0.20   -0.91   -0.26
#  59    0.48   -0.90    0.92    0.15   -0.07    0.00    0.00       0.58    0.38   -0.18
#  60    0.76   -0.57    0.99   -0.36   -0.08    0.00    0.00       0.74   -1.34   -0.28
#  61    1.45   -0.35    0.06   -0.61   -0.09    0.00    0.00       0.46   -1.87   -0.28
#  62    0.79   -0.31    0.09   -0.43   -0.06    0.00    0.00       0.08   -2.03   -0.28
#  63    0.33   -0.08    0.00   -0.08   -0.02    0.00    0.00       0.15   -1.19   -0.28
#  64    0.39   -0.45    0.33   -0.52   -0.06    0.00    0.00      -0.31   -2.25   -0.27
#  65    0.50   -0.29    0.09   -0.51   -0.06    0.00    0.00      -0.28   -2.40   -0.28
#  66    0.06   -1.14    1.78   -0.50   -0.09    0.00    0.00       0.11   -1.54   -0.28
#  67    0.10   -0.99    1.61   -0.98   -0.09    0.00    0.00      -0.35   -2.91   -0.28

@<TRIPOS>MOLECULE
       AVX38788_0        77
   67    70     0     0     0



@<TRIPOS>ATOM
      1 C1          6.2493   -50.5703    -0.6786 C.3        1          -0.0636
      2 N1          5.7708   -49.7727     0.4583 N.4        1          -0.3783
      3 H1          6.4113   -49.8715     1.2318 H          1           0.4150
      4 C2          4.4393   -50.2445     0.8617 C.3        1           0.0369
      5 C3          4.5805   -51.4843     1.7066 C.ar       1          -0.0839
      6 C4          4.5929   -52.7289     1.1114 C.ar       1          -0.0992
      7 C5          4.7222   -53.8680     1.8856 C.ar       1          -0.0876
      8 C6          4.8400   -53.7677     3.2607 C.ar       1          -0.1024
      9 C7          4.8296   -52.5293     3.8684 C.ar       1          -0.0814
     10 C8          4.7046   -51.3757     3.0924 C.ar       1          -0.1210
     11 C9          4.6984   -50.0449     3.7364 C.2        1           0.5512
     12 O1          4.0763   -49.1295     3.2339 O.2        1          -0.5419
     13 N2          5.3823   -49.8467     4.8808 N.am       1          -0.7103
     14 C10         5.3761   -48.5280     5.5189 C.3        1           0.1232
     15 C11         6.6922   -48.3190     6.2705 C.3        1          -0.1276
     16 C12         6.7074   -48.9391     7.6716 C.3        1          -0.1376
     17 C13         6.0623   -47.6335     8.1480 C.3        1          -0.1434
     18 C14         6.7900   -46.9635     6.9779 C.3        1          -0.1315
     19 C15         5.6915   -48.3593     0.0660 C.3        1           0.0712
     20 C16         7.0653   -47.7430     0.1275 C.ar       1          -0.1010
     21 C17         7.5040   -46.9337    -0.8968 C.ar       1          -0.1662
     22 C18         8.7650   -46.3627    -0.8474 C.ar       1          -0.1057
     23 C19         9.5995   -46.5983     0.2331 C.ar       1           0.0510
     24 O2         10.8343   -46.0262     0.2679 O.3        1          -0.2967
     25 C20        11.7805   -46.5949     1.1786 C.3        1           0.0496
     26 C21        12.2386   -47.9616     0.6656 C.3        1          -0.0833
     27 C22        12.8941   -47.7976    -0.7070 C.3        1          -0.1799
     28 C23        14.0843   -46.8807    -0.5890 C.2        1           0.4904
     29 O3         15.0107   -47.1759     0.1464 O.co2      1          -0.6990
     30 O4         14.1207   -45.8436    -1.2290 O.co2      1          -0.7072
     31 C24        11.0765   -46.7557     2.5312 C.3        1           0.0174
     32 O5          9.9802   -47.6554     2.3386 O.3        1          -0.2560
     33 C25         9.1723   -47.4136     1.2750 C.ar       1           0.1024
     34 C26         7.8938   -47.9878     1.2283 C.ar       1          -0.1171
     35 C27         7.4280   -48.8472     2.3285 C.2        1           0.5229
     36 O6          6.8317   -48.3566     3.2775 O.co2      1          -0.6964
     37 O7          7.6371   -50.0521     2.2941 O.co2      1          -0.6419
     38 H2          5.5574   -50.4636    -1.5142 H          1           0.1213
     39 H3          7.2372   -50.2203    -0.9781 H          1           0.1320
     40 H4          6.3083   -51.6191    -0.3875 H          1           0.1091
     41 H5          3.9377   -49.4671     1.4379 H          1           0.1584
     42 H6          3.8512   -50.4750    -0.0265 H          1           0.1311
     43 H7          4.5009   -52.8141     0.0387 H          1           0.1421
     44 H8          4.7310   -54.8400     1.4148 H          1           0.1390
     45 H9          4.9401   -54.6610     3.8596 H          1           0.1385
     46 H10         4.9216   -52.4525     4.9417 H          1           0.1338
     47 H11         5.8787   -50.5773     5.2817 H          1           0.4026
     48 H12         5.2664   -47.7562     4.7569 H          1           0.0786
     49 H13         4.5437   -48.4675     6.2198 H          1           0.0778
     50 H14         7.5681   -48.5648     5.6702 H          1           0.0968
     51 H15         6.0604   -49.8105     7.7728 H          1           0.0837
     52 H16         7.7094   -49.1035     8.0678 H          1           0.0669
     53 H17         4.9764   -47.6210     8.0544 H          1           0.0707
     54 H18         6.4098   -47.3041     9.1273 H          1           0.0813
     55 H19         7.8114   -46.6627     7.2108 H          1           0.0733
     56 H20         6.2124   -46.1745     6.4961 H          1           0.0872
     57 H21         5.3054   -48.2856    -0.9508 H          1           0.1567
     58 H22         5.0250   -47.8300     0.7469 H          1           0.1418
     59 H23         6.8613   -46.7436    -1.7437 H          1           0.1092
     60 H24         9.0999   -45.7302    -1.6563 H          1           0.1344
     61 H25        12.6394   -45.9317     1.2820 H          1           0.0817
     62 H26        12.9587   -48.3889     1.3634 H          1           0.0868
     63 H27        11.3779   -48.6248     0.5802 H          1           0.0741
     64 H28        13.2205   -48.7714    -1.0726 H          1           0.0629
     65 H29        12.1741   -47.3703    -1.4049 H          1           0.0560
     66 H30        11.7706   -47.1692     3.2630 H          1           0.0766
     67 H31        10.7065   -45.7891     2.8732 H          1           0.1245
@<TRIPOS>BOND
     1    1    2 1
     2    1   38 1
     3    1   39 1
     4    1   40 1
     5    2    3 1
     6    2    4 1
     7    2   19 1
     8    4    5 1
     9    4   41 1
    10    4   42 1
    11    5   10 ar
    12    5    6 ar
    13    6    7 ar
    14    6   43 1
    15    7    8 ar
    16    7   44 1
    17    8    9 ar
    18    8   45 1
    19    9   10 ar
    20    9   46 1
    21   10   11 1
    22   11   12 2
    23   11   13 am
    24   13   14 1
    25   13   47 1
    26   14   15 1
    27   14   48 1
    28   14   49 1
    29   15   18 1
    30   15   16 1
    31   15   50 1
    32   16   17 1
    33   16   51 1
    34   16   52 1
    35   17   18 1
    36   17   53 1
    37   17   54 1
    38   18   55 1
    39   18   56 1
    40   19   20 1
    41   19   57 1
    42   19   58 1
    43   20   34 ar
    44   20   21 ar
    45   21   22 ar
    46   21   59 1
    47   22   23 ar
    48   22   60 1
    49   23   33 ar
    50   23   24 1
    51   24   25 1
    52   25   26 1
    53   25   31 1
    54   25   61 1
    55   26   27 1
    56   26   62 1
    57   26   63 1
    58   27   28 1
    59   27   64 1
    60   27   65 1
    61   28   29 1
    62   28   30 2
    63   31   32 1
    64   31   66 1
    65   31   67 1
    66   32   33 1
    67   33   34 ar
    68   34   35 1
    69   35   36 1
    70   35   37 2
