AVX38781_1, 3
##########                 Name:           AVX38781_0
##########          Protonation:                   61
##########               SMILES:   CC[NH+](Cc1ccccc1C(=O)NCC2CCCCC2)Cc3ccc4c(c3C(=O)[O-])OC[C@H](O4)CCC(=O)[O-]
##########            Long Name:   ]methyl]-2-(3-oxido-3-oxo-propyl)-2,3-dihydro-1,4-benzodioxine-5-carboxylate
##########          FlexRecCode: 1
##########               Number:                  584
##########   Ligand Source File: /raid1/people/rgc/Examples/sampl4/screening/ligands/build_1//sampl4-hivint-00000
##########           GlobalRank: 101
##########                 Rank:                    1
##########               Setnum:                  262
##########             Matchnum:                 8395
##########                Cloud:                    1
##########        Electrostatic:           -31.291069
##########        Van der Waals:           -19.934216
##########  Ligand Polar Desolv:            30.222916
########## Ligand Apolar Desolv:            -2.774796
##########      Internal Energy:             0.000000
##########      Receptor Energy: 0.0
########## Receptor Desolvation:             0.000000
########## Receptor Hydrophobic:             0.000000
##########         Total Energy: -23.78
##########        Ligand Charge:            -1.000000
##########            Arbitrary:    +999.9990
##########     heavy atom count:   40
##########           pose count:    1
##########        Ligand Energy:             0.000000
# num electro vdwattr vdwrepu polsolv apolsol rdesolv rhydroe totalscore fullpol fullapo
#   1  -18.49   -3.07    1.48   14.06   -0.20    0.00    0.00      -6.21   29.41   -0.41
#   2    9.66   -2.07    0.85   -6.86   -0.07    0.00    0.00       1.51  -16.39   -0.16
#   3  -15.94   -3.90    5.69   10.50   -0.14    0.00    0.00      -3.79   31.16   -0.43
#   4   -1.31   -1.00    0.13    1.80   -0.12    0.00    0.00      -0.49    3.78   -0.25
#   5   -0.56   -1.45    0.34    0.75   -0.09    0.00    0.00      -1.00    1.57   -0.18
#   6    0.49   -1.18    0.22   -0.89   -0.05    0.00    0.00      -1.42   -2.07   -0.12
#   7    0.13   -1.33    0.24   -0.26   -0.06    0.00    0.00      -1.29   -0.56   -0.12
#   8   -2.07   -1.30    0.32    3.32    0.10    0.00    0.00       0.37    8.74    0.27
#   9    0.85   -0.83    0.06   -0.20   -0.09    0.00    0.00      -0.21   -0.69   -0.30
#  10   -0.54   -0.59    0.03    0.63   -0.07    0.00    0.00      -0.54    2.82   -0.30
#  11    2.15   -0.91    0.26   -3.17   -0.04    0.00    0.00      -1.71  -13.16   -0.15
#  12   -1.88   -0.85    0.08    7.74   -0.17    0.00    0.00       4.92   26.20   -0.59
#  13   -2.72   -1.35    0.75    3.79   -0.07    0.00    0.00       0.40   14.55   -0.25
#  14   -0.49   -0.70    0.05    0.11   -0.05    0.00    0.00      -1.08    0.49   -0.23
#  15    0.04   -0.40    0.05   -0.03   -0.05    0.00    0.00      -0.40   -0.16   -0.28
#  16   -0.20   -0.21    0.00    0.01    0.01    0.00    0.00      -0.39    0.13    0.07
#  17    0.59    0.00    0.00   -0.10    0.01    0.00    0.00       0.50   -2.86    0.29
#  18    0.00   -0.10    0.00    0.01   -0.02    0.00    0.00      -0.11    0.14   -0.37
#  19   -0.04   -0.20    0.00    0.05   -0.03    0.00    0.00      -0.22    0.61   -0.35
#  20    0.01   -0.24    0.01    0.08   -0.03    0.00    0.00      -0.18    0.77   -0.34
#  21    0.00   -0.22    0.01    0.01   -0.03    0.00    0.00      -0.24    0.08   -0.28
#  22    0.02   -0.15    0.00   -0.01   -0.02    0.00    0.00      -0.16   -0.22   -0.31
#  23    0.00   -0.11    0.00   -0.02   -0.01    0.00    0.00      -0.14   -0.67   -0.39
#  24    0.00   -0.06    0.00   -0.01   -0.01    0.00    0.00      -0.08   -0.54   -0.47
#  25    0.01   -0.04    0.00   -0.01   -0.01    0.00    0.00      -0.04   -0.34   -0.47
#  26    0.02   -0.05    0.00    0.00   -0.01    0.00    0.00      -0.04    0.05   -0.44
#  27    0.03   -0.11    0.00    0.02   -0.01    0.00    0.00      -0.08    0.44   -0.40
#  28   -0.15   -0.17    0.00   -0.25   -0.03    0.00    0.00      -0.60   -4.65   -0.63
#  29    0.15   -0.37    0.02    0.93    0.03    0.00    0.00       0.76    7.15    0.22
#  30    0.21   -0.10    0.00    0.19    0.06    0.00    0.00       0.37    6.75    2.20
#  31   -0.05   -0.10    0.00   -0.12   -0.02    0.00    0.00      -0.29   -2.38   -0.38
#  32    0.04   -0.09    0.00    0.04   -0.01    0.00    0.00      -0.02    0.85   -0.15
#  33    0.07   -0.22    0.02    0.09   -0.02    0.00    0.00      -0.07    0.84   -0.22
#  34    0.07   -0.14    0.00    0.05   -0.02    0.00    0.00      -0.03    0.70   -0.25
#  35    0.08   -0.18    0.01    0.10   -0.02    0.00    0.00      -0.01    1.15   -0.25
#  36    0.05   -0.07    0.00    0.05   -0.01    0.00    0.00       0.02    1.25   -0.25
#  37    0.05   -0.10    0.00    0.10   -0.01    0.00    0.00       0.04    1.76   -0.22
#  38   -1.00   -1.77    0.62    0.08   -0.12    0.00    0.00      -2.19    0.25   -0.39
#  39   -2.19   -1.68    0.33    0.60   -0.18    0.00    0.00      -3.12    1.56   -0.46
#  40    0.94   -1.07    0.10    0.05   -0.11    0.00    0.00      -0.08    0.15   -0.30
#  41   -5.30   -1.23    0.20    3.16    0.25    0.00    0.00      -2.91    7.73    0.62
#  42    0.38   -0.26    0.02   -0.81   -0.09    0.00    0.00      -0.77   -2.47   -0.28
#  43    0.06   -0.50    0.33   -0.63   -0.08    0.00    0.00      -0.81   -2.21   -0.27
#  44    0.72   -0.59    0.24   -0.50   -0.11    0.00    0.00      -0.24   -1.25   -0.28
#  45   -0.01   -0.91    0.86   -0.94   -0.12    0.00    0.00      -1.12   -2.20   -0.28
#  46    0.47   -0.91    1.17   -0.60   -0.09    0.00    0.00       0.04   -1.81   -0.28
#  47    0.56   -0.34    0.04   -0.59   -0.11    0.00    0.00      -0.44   -1.49   -0.28
#  48    0.29   -0.96    0.82   -1.47   -0.14    0.00    0.00      -1.45   -3.03   -0.28
#  49   -0.04   -0.30    0.13    0.20   -0.05    0.00    0.00      -0.06    1.08   -0.27
#  50    0.05   -0.09    0.01   -0.06   -0.01    0.00    0.00      -0.10   -0.65   -0.15
#  51   -0.01   -0.01    0.00    0.02    0.00    0.00    0.00      -0.01    0.93   -0.20
#  52   -0.04   -0.03    0.00    0.06   -0.01    0.00    0.00      -0.01    2.18   -0.28
#  53    0.07   -0.05    0.00   -0.03   -0.01    0.00    0.00      -0.01   -0.56   -0.22
#  54   -0.03   -0.04    0.00    0.00   -0.01    0.00    0.00      -0.08   -0.13   -0.27
#  55    0.01   -0.08    0.01   -0.04   -0.02    0.00    0.00      -0.13   -0.50   -0.28
#  56    0.02   -0.11    0.01    0.00   -0.01    0.00    0.00      -0.10    0.02   -0.14
#  57   -0.02   -0.08    0.00    0.17   -0.02    0.00    0.00       0.05    2.25   -0.27
#  58    0.08   -0.03    0.00    0.06   -0.01    0.00    0.00       0.11    2.47   -0.28
#  59    0.01   -0.01    0.00    0.02    0.00    0.00    0.00       0.01    1.53   -0.28
#  60   -0.01    0.00    0.00    0.00    0.00    0.00    0.00      -0.01    0.74   -0.28
#  61   -0.03   -0.01    0.00    0.00    0.00    0.00    0.00      -0.03    0.01   -0.22
#  62   -0.10    0.00    0.00   -0.02    0.00    0.00    0.00      -0.12   -2.26    0.38
#  63   -0.03   -0.02    0.00    0.00    0.00    0.00    0.00      -0.05    0.18   -0.28
#  64   -0.03   -0.07    0.00   -0.02   -0.01    0.00    0.00      -0.13   -0.34   -0.28
#  65   -0.02   -0.01    0.00   -0.01    0.00    0.00    0.00      -0.05   -0.96   -0.28
#  66   -0.05   -0.22    0.09   -0.04   -0.04    0.00    0.00      -0.26   -0.32   -0.28
#  67   -0.03   -0.04    0.00   -0.02   -0.01    0.00    0.00      -0.09   -0.56   -0.24
#  68   -0.04   -0.05    0.00   -0.02   -0.01    0.00    0.00      -0.12   -0.46   -0.28
#  69   -0.02   -0.01    0.00   -0.01    0.00    0.00    0.00      -0.05   -0.46   -0.28
#  70   -0.06   -0.15    0.03   -0.04   -0.03    0.00    0.00      -0.27   -0.37   -0.28
#  71   -0.03   -0.03    0.00   -0.01   -0.01    0.00    0.00      -0.08   -0.66   -0.28
#  72   -0.03   -0.02    0.00   -0.01    0.00    0.00    0.00      -0.06   -0.61   -0.28
#  73   -0.02   -0.01    0.00   -0.01    0.00    0.00    0.00      -0.04   -0.81   -0.28
#  74   -0.03   -0.01    0.00   -0.01    0.00    0.00    0.00      -0.05   -0.53   -0.28
#  75   -0.04   -0.07    0.01   -0.03   -0.02    0.00    0.00      -0.16   -0.50   -0.28
#  76    0.50   -0.94    1.45    0.00   -0.08    0.00    0.00       0.93    0.01   -0.28
#  77    3.51   -0.59    0.20   -0.78   -0.12    0.00    0.00       2.22   -1.82   -0.28

@<TRIPOS>MOLECULE
       AVX38781_0        61
   77    80     0     0     0



@<TRIPOS>ATOM
      1 O1         16.5765   -45.1454    -1.0935 O.co2      1          -0.6990
      2 C1         16.2520   -45.9163    -1.9806 C.2        1           0.4902
      3 O2         16.3221   -47.1199    -1.7982 O.co2      1          -0.7073
      4 C2         15.7584   -45.3818    -3.3003 C.3        1          -0.1781
      5 C3         14.5056   -44.5339    -3.0707 C.3        1          -0.0836
      6 C4         13.4163   -45.3967    -2.4303 C.3        1           0.0537
      7 C5         12.0480   -44.7284    -2.6213 C.3        1           0.0184
      8 O3         11.0563   -45.5520    -1.9983 O.3        1          -0.2607
      9 C6         11.3379   -46.0095    -0.7515 C.ar       1           0.0923
     10 C7         10.2990   -46.4982     0.0547 C.ar       1          -0.0916
     11 C8          8.9159   -46.5108    -0.4482 C.2        1           0.5285
     12 O4          8.1892   -45.5440    -0.2638 O.co2      1          -0.6375
     13 O5          8.4929   -47.4879    -1.0506 O.co2      1          -0.7102
     14 C9         10.5842   -46.9741     1.3391 C.ar       1          -0.1134
     15 C10         9.4744   -47.5010     2.2119 C.3        1           0.0607
     16 N1          9.3123   -48.9427     1.9807 N.4        1          -0.3535
     17 H1          9.4116   -49.1386     0.9960 H          1           0.4372
     18 C11         7.9793   -49.3640     2.4318 C.3        1           0.0285
     19 C12         6.9265   -48.6101     1.6609 C.2        1          -0.1681
     20 C13         6.0703   -47.8480     2.2950 C.2        1          -0.1476
     21 C14        10.3386   -49.6775     2.7322 C.3        1           0.0231
     22 C15        10.1722   -51.1564     2.4951 C.ar       1          -0.0838
     23 C16         9.9630   -51.6326     1.2170 C.ar       1          -0.1053
     24 C17         9.8101   -52.9898     0.9976 C.ar       1          -0.0945
     25 C18         9.8656   -53.8787     2.0567 C.ar       1          -0.1037
     26 C19        10.0746   -53.4159     3.3392 C.ar       1          -0.0836
     27 C20        10.2350   -52.0480     3.5669 C.ar       1          -0.1082
     28 C21        10.4650   -51.5456     4.9382 C.2        1           0.5386
     29 O6         11.4796   -50.9281     5.1970 O.2        1          -0.5111
     30 N2          9.5496   -51.7721     5.9011 N.am       1          -0.7102
     31 C22         9.7776   -51.2742     7.2600 C.3        1           0.1211
     32 C23         8.4331   -50.9712     7.9243 C.3        1          -0.0949
     33 C24         7.9201   -49.6131     7.4414 C.3        1          -0.1153
     34 C25         6.5756   -49.3101     8.1058 C.3        1          -0.1170
     35 C26         6.7533   -49.2773     9.6250 C.3        1          -0.1228
     36 C27         7.2663   -50.6354    10.1079 C.3        1          -0.1167
     37 C28         8.6108   -50.9383     9.4437 C.3        1          -0.1150
     38 C29        11.8801   -46.9608     1.8048 C.ar       1          -0.1141
     39 C30        12.9051   -46.4767     1.0090 C.ar       1          -0.1215
     40 C31        12.6397   -46.0000    -0.2653 C.ar       1           0.0630
     41 O7         13.6626   -45.5211    -1.0255 O.3        1          -0.2991
     42 H2         16.5344   -44.7672    -3.7566 H          1           0.0538
     43 H3         15.5178   -46.2136    -3.9622 H          1           0.0629
     44 H4         14.7462   -43.7020    -2.4088 H          1           0.0735
     45 H5         14.1486   -44.1473    -4.0252 H          1           0.0844
     46 H6         13.4112   -46.3842    -2.8915 H          1           0.0764
     47 H7         12.0522   -43.7426    -2.1561 H          1           0.0730
     48 H8         11.8308   -44.6325    -3.6850 H          1           0.1193
     49 H9          9.7218   -47.3265     3.2591 H          1           0.1022
     50 H10         8.5448   -46.9871     1.9676 H          1           0.1586
     51 H11         7.8589   -50.4337     2.2603 H          1           0.1117
     52 H12         7.8719   -49.1523     3.4956 H          1           0.1196
     53 H13         6.8780   -48.6980     0.5856 H          1           0.1406
     54 H14         6.1188   -47.7601     3.3704 H          1           0.0937
     55 H15         5.3158   -47.3078     1.7426 H          1           0.1120
     56 H16        11.3276   -49.3648     2.3976 H          1           0.1637
     57 H17        10.2311   -49.4659     3.7961 H          1           0.1182
     58 H18         9.9182   -50.9440     0.3861 H          1           0.1372
     59 H19         9.6462   -53.3572    -0.0047 H          1           0.1357
     60 H20         9.7447   -54.9371     1.8787 H          1           0.1362
     61 H21        10.1178   -54.1108     4.1648 H          1           0.1330
     62 H22         8.7401   -52.2648     5.6946 H          1           0.3966
     63 H23        10.3073   -52.0301     7.8399 H          1           0.0834
     64 H24        10.3753   -50.3637     7.2179 H          1           0.0718
     65 H25         7.7140   -51.7463     7.6594 H          1           0.0748
     66 H26         8.6392   -48.8379     7.7064 H          1           0.0672
     67 H27         7.7935   -49.6366     6.3590 H          1           0.0552
     68 H28         6.2101   -48.3425     7.7616 H          1           0.0602
     69 H29         5.8566   -50.0853     7.8407 H          1           0.0592
     70 H30         7.4724   -48.5022     9.8900 H          1           0.0647
     71 H31         5.7955   -49.0615    10.0983 H          1           0.0600
     72 H32         7.3930   -50.6120    11.1903 H          1           0.0655
     73 H33         6.5472   -51.4105     9.8431 H          1           0.0597
     74 H34         8.9762   -51.9060     9.7877 H          1           0.0709
     75 H35         9.3299   -50.1632     9.7086 H          1           0.0685
     76 H36        12.0984   -47.3295     2.7962 H          1           0.1201
     77 H37        13.9179   -46.4704     1.3838 H          1           0.1288
@<TRIPOS>BOND
     1    1    2 1
     2    2    3 2
     3    2    4 1
     4    4    5 1
     5    4   42 1
     6    4   43 1
     7    5    6 1
     8    5   44 1
     9    5   45 1
    10    6   41 1
    11    6    7 1
    12    6   46 1
    13    7    8 1
    14    7   47 1
    15    7   48 1
    16    8    9 1
    17    9   40 ar
    18    9   10 ar
    19   10   11 1
    20   10   14 ar
    21   11   12 1
    22   11   13 2
    23   14   15 1
    24   14   38 ar
    25   15   16 1
    26   15   49 1
    27   15   50 1
    28   16   17 1
    29   16   18 1
    30   16   21 1
    31   18   19 1
    32   18   51 1
    33   18   52 1
    34   19   20 2
    35   19   53 1
    36   20   54 1
    37   20   55 1
    38   21   22 1
    39   21   56 1
    40   21   57 1
    41   22   27 ar
    42   22   23 ar
    43   23   24 ar
    44   23   58 1
    45   24   25 ar
    46   24   59 1
    47   25   26 ar
    48   25   60 1
    49   26   27 ar
    50   26   61 1
    51   27   28 1
    52   28   29 2
    53   28   30 am
    54   30   31 1
    55   30   62 1
    56   31   32 1
    57   31   63 1
    58   31   64 1
    59   32   37 1
    60   32   33 1
    61   32   65 1
    62   33   34 1
    63   33   66 1
    64   33   67 1
    65   34   35 1
    66   34   68 1
    67   34   69 1
    68   35   36 1
    69   35   70 1
    70   35   71 1
    71   36   37 1
    72   36   72 1
    73   36   73 1
    74   37   74 1
    75   37   75 1
    76   38   39 ar
    77   38   76 1
    78   39   40 ar
    79   39   77 1
    80   40   41 1
