AVX38741_1, 3
##########                 Name:           AVX38741_0
##########          Protonation:                   97
##########               SMILES:   c1ccc(cc1)CN2CN(Cc3ccccc3C2=O)Cc4ccc5c(c4C(=O)[O-])OC[C@H](O5)CCC(=O)[O-]
##########            Long Name:   )methyl]-2-(3-oxido-3-oxo-propyl)-2,3-dihydro-1,4-benzodioxine-5-carboxylate
##########          FlexRecCode: 1
##########               Number:                  149
##########   Ligand Source File: /raid1/people/rgc/Examples/sampl4/screening/ligands/build_1//sampl4-hivint-00000
##########           GlobalRank: 116
##########                 Rank:                    1
##########               Setnum:                   34
##########             Matchnum:                 4323
##########                Cloud:                    1
##########        Electrostatic:           -26.966442
##########        Van der Waals:           -20.923386
##########  Ligand Polar Desolv:            30.043070
########## Ligand Apolar Desolv:            -3.205226
##########      Internal Energy:             0.000000
##########      Receptor Energy: 0.0
########## Receptor Desolvation:             0.000000
########## Receptor Hydrophobic:             0.000000
##########         Total Energy: -21.05
##########        Ligand Charge:            -2.000000
##########            Arbitrary:    +999.9990
##########     heavy atom count:   38
##########           pose count:    1
##########        Ligand Energy:             0.000000
# num electro vdwattr vdwrepu polsolv apolsol rdesolv rhydroe totalscore fullpol fullapo
#   1  -18.01   -2.65    1.20   15.10   -0.19    0.00    0.00      -4.55   32.56   -0.41
#   2    8.33   -1.89    0.59   -7.66   -0.07    0.00    0.00      -0.70  -18.58   -0.16
#   3  -11.66   -3.21    3.13   11.13   -0.14    0.00    0.00      -0.76   34.73   -0.43
#   4   -1.09   -1.22    0.26    2.17   -0.11    0.00    0.00       0.00    4.70   -0.24
#   5   -0.58   -1.40    0.29    0.78   -0.08    0.00    0.00      -1.00    1.67   -0.18
#   6    0.49   -1.07    0.20   -0.90   -0.05    0.00    0.00      -1.33   -2.18   -0.12
#   7    0.15   -0.99    0.14   -0.22   -0.05    0.00    0.00      -0.97   -0.51   -0.12
#   8   -1.96   -1.00    0.25    3.74    0.08    0.00    0.00       1.12   11.93    0.27
#   9    0.65   -0.68    0.03   -0.32   -0.08    0.00    0.00      -0.40   -1.26   -0.30
#  10   -0.51   -0.50    0.02    1.34   -0.08    0.00    0.00       0.26    6.98   -0.41
#  11    1.43   -0.51    0.03   -3.84   -0.03    0.00    0.00      -2.92  -20.90   -0.17
#  12   -1.14   -0.51    0.02    7.85   -0.13    0.00    0.00       6.10   35.85   -0.59
#  13   -1.55   -0.53    0.05    5.27   -0.06    0.00    0.00       3.18   27.72   -0.32
#  14   -0.14   -0.76    0.07    0.23   -0.07    0.00    0.00      -0.66    1.10   -0.32
#  15   -0.02   -0.39    0.04   -0.57   -0.05    0.00    0.00      -1.00   -3.51   -0.30
#  16   -0.04   -0.22    0.00    1.15    0.23    0.00    0.00       1.12   14.27    2.82
#  17   -0.03   -0.07    0.00   -0.31   -0.05    0.00    0.00      -0.47   -7.66   -1.19
#  18    0.19   -0.11    0.00    0.51    0.06    0.00    0.00       0.65   12.84    1.62
#  19   -0.04   -0.05    0.00   -0.09   -0.01    0.00    0.00      -0.20   -2.97   -0.42
#  20    0.04   -0.20    0.00    0.17   -0.03    0.00    0.00       0.00    2.38   -0.38
#  21    0.06   -0.38    0.02    0.32   -0.06    0.00    0.00      -0.04    2.51   -0.45
#  22    0.08   -0.87    0.15    0.41   -0.09    0.00    0.00      -0.32    2.04   -0.47
#  23    0.15   -0.79    0.09    0.32   -0.11    0.00    0.00      -0.34    1.39   -0.47
#  24    0.11   -0.45    0.02    0.29   -0.08    0.00    0.00      -0.10    1.74   -0.47
#  25    0.04   -0.24    0.01    0.20   -0.04    0.00    0.00      -0.04    2.09   -0.45
#  26   -0.20   -0.17    0.00   -0.67   -0.03    0.00    0.00      -1.07  -12.15   -0.54
#  27    0.21   -0.11    0.00    0.57    0.02    0.00    0.00       0.69   12.92    0.39
#  28    0.04   -0.29    0.01    0.35   -0.03    0.00    0.00       0.09    3.37   -0.33
#  29    0.03   -0.36    0.02    0.15   -0.05    0.00    0.00      -0.21    1.29   -0.46
#  30    0.05   -0.46    0.03    0.19   -0.07    0.00    0.00      -0.27    1.28   -0.47
#  31    0.03   -0.91    0.16    0.24   -0.09    0.00    0.00      -0.57    1.24   -0.47
#  32    0.03   -1.16    0.37    0.53   -0.09    0.00    0.00      -0.32    2.71   -0.45
#  33    0.01   -0.44    0.03    0.24   -0.05    0.00    0.00      -0.21    1.78   -0.34
#  34   -0.01   -0.21    0.01   -0.27   -0.04    0.00    0.00      -0.51   -2.48   -0.33
#  35   -0.75   -2.24    1.46    0.64   -0.13    0.00    0.00      -1.01    2.15   -0.42
#  36   -2.07   -1.87    0.56    0.76   -0.17    0.00    0.00      -2.79    2.04   -0.46
#  37    0.47   -0.95    0.06   -0.05   -0.10    0.00    0.00      -0.57   -0.15   -0.30
#  38   -5.17   -1.04    0.11    3.73    0.24    0.00    0.00      -2.14    9.66    0.62
#  39    0.26   -0.31    0.03   -1.10   -0.10    0.00    0.00      -1.22   -3.14   -0.28
#  40    0.04   -0.83    1.01   -0.92   -0.10    0.00    0.00      -0.79   -2.60   -0.27
#  41    0.74   -0.49    0.16   -0.61   -0.11    0.00    0.00      -0.31   -1.62   -0.28
#  42    0.06   -0.92    0.93   -1.30   -0.12    0.00    0.00      -1.36   -3.02   -0.28
#  43    0.59   -0.82    0.95   -0.85   -0.09    0.00    0.00      -0.23   -2.58   -0.28
#  44    0.58   -0.24    0.02   -0.67   -0.08    0.00    0.00      -0.39   -2.22   -0.28
#  45    0.68   -0.57    0.21   -1.92   -0.12    0.00    0.00      -1.73   -4.45   -0.28
#  46    0.00   -0.22    0.04   -0.33   -0.04    0.00    0.00      -0.56   -1.92   -0.26
#  47   -0.03   -0.09    0.01   -0.16   -0.02    0.00    0.00      -0.28   -1.90   -0.20
#  48    0.01   -0.02    0.00   -0.05   -0.01    0.00    0.00      -0.07   -2.03   -0.26
#  49   -0.01   -0.01    0.00   -0.03    0.00    0.00    0.00      -0.05   -1.77   -0.24
#  50   -0.01   -0.01    0.00   -0.02    0.00    0.00    0.00      -0.05   -1.68   -0.26
#  51   -0.03   -0.01    0.00   -0.02    0.00    0.00    0.00      -0.06   -1.73   -0.27
#  52   -0.07   -0.06    0.00   -0.10   -0.01    0.00    0.00      -0.24   -2.07   -0.28
#  53   -0.09   -0.28    0.07   -0.42   -0.06    0.00    0.00      -0.78   -2.08   -0.28
#  54   -0.27   -0.22    0.02   -0.44   -0.07    0.00    0.00      -0.98   -1.78   -0.28
#  55   -0.07   -0.11    0.01   -0.19   -0.03    0.00    0.00      -0.39   -1.90   -0.28
#  56   -0.01   -0.04    0.00   -0.07   -0.01    0.00    0.00      -0.12   -1.96   -0.26
#  57   -0.06   -0.06    0.00   -0.12   -0.01    0.00    0.00      -0.25   -2.31   -0.28
#  58   -0.05   -0.07    0.00   -0.10   -0.01    0.00    0.00      -0.24   -2.00   -0.28
#  59   -0.04   -0.23    0.05   -0.37   -0.05    0.00    0.00      -0.63   -2.24   -0.28
#  60   -0.04   -0.56    0.69   -0.53   -0.06    0.00    0.00      -0.51   -2.37   -0.28
#  61   -0.02   -0.03    0.00   -0.03   -0.01    0.00    0.00      -0.08   -1.43   -0.24
#  62    0.00   -0.11    0.01   -0.11   -0.02    0.00    0.00      -0.23   -1.07   -0.25
#  63    0.11   -1.33    4.31   -1.24   -0.08    0.00    0.00       1.77   -4.11   -0.28
#  64    3.18   -0.69    0.36   -1.74   -0.12    0.00    0.00       0.98   -4.19   -0.28

@<TRIPOS>MOLECULE
       AVX38741_0        97
   64    68     0     0     0



@<TRIPOS>ATOM
      1 O1         16.1851   -45.2802    -1.1939 O.co2      1          -0.7014
      2 C1         15.7769   -46.0040    -2.0861 C.2        1           0.4917
      3 O2         15.9172   -47.2123    -2.0030 O.co2      1          -0.7111
      4 C2         15.0938   -45.4057    -3.2887 C.3        1          -0.1792
      5 C3         13.8500   -44.6367    -2.8385 C.3        1          -0.0812
      6 C4         12.8887   -45.5921    -2.1287 C.3        1           0.0508
      7 C5         11.4822   -44.9789    -2.0928 C.3        1           0.0193
      8 O3         10.6138   -45.8897    -1.4098 O.3        1          -0.2594
      9 C6         11.0745   -46.4164    -0.2465 C.ar       1           0.0795
     10 C7         10.1703   -47.0079     0.6485 C.ar       1          -0.1139
     11 C8          8.7347   -47.0528     0.3277 C.2        1           0.5297
     12 O4          8.0015   -46.1367     0.6741 O.co2      1          -0.6727
     13 O5          8.2745   -48.0060    -0.2856 O.co2      1          -0.6761
     14 C9         10.6402   -47.5553     1.8472 C.ar       1          -0.0612
     15 C10         9.6762   -48.1929     2.8142 C.3        1           0.1116
     16 N1          9.5413   -49.6217     2.5007 N.3        1          -0.4937
     17 C11         8.1864   -50.0933     2.7789 C.3        1           0.2798
     18 N2          7.7697   -50.0465     4.1669 N.am       1          -0.6187
     19 C12         6.3607   -49.7256     4.4077 C.3        1           0.1501
     20 C13         6.2012   -48.2330     4.5408 C.ar       1          -0.1005
     21 C14         6.3156   -47.6335     5.7811 C.ar       1          -0.1010
     22 C15         6.1693   -46.2644     5.9032 C.ar       1          -0.1237
     23 C16         5.9087   -45.4947     4.7849 C.ar       1          -0.1217
     24 C17         5.7952   -46.0940     3.5445 C.ar       1          -0.1293
     25 C18         5.9458   -47.4626     3.4217 C.ar       1          -0.0961
     26 C19         8.4994   -50.2565     5.2250 C.2        1           0.5675
     27 O6          7.8338   -50.4033     6.2314 O.2        1          -0.5396
     28 C20         9.9309   -50.3563     5.4795 C.ar       1          -0.1296
     29 C21        10.3131   -50.4104     6.8371 C.ar       1          -0.0725
     30 C22        11.6333   -50.4977     7.2014 C.ar       1          -0.1314
     31 C23        12.6157   -50.5326     6.2272 C.ar       1          -0.0988
     32 C24        12.2572   -50.4839     4.8973 C.ar       1          -0.1027
     33 C25        10.9239   -50.4016     4.5120 C.ar       1          -0.0393
     34 C26        10.6564   -50.3794     3.0373 C.3        1           0.0877
     35 C27        11.9846   -47.5113     2.1424 C.ar       1          -0.1370
     36 C28        12.8764   -46.9257     1.2592 C.ar       1          -0.1244
     37 C29        12.4274   -46.3773     0.0680 C.ar       1           0.0340
     38 O7         13.3221   -45.7993    -0.7800 O.3        1          -0.3040
     39 H1         15.7785   -44.7251    -3.7945 H          1           0.0549
     40 H2         14.8007   -46.2016    -3.9734 H          1           0.0643
     41 H3         14.1430   -43.8408    -2.1538 H          1           0.0712
     42 H4         13.3558   -44.2039    -3.7084 H          1           0.0814
     43 H5         12.8614   -46.5453    -2.6566 H          1           0.0750
     44 H6         11.5093   -44.0279    -1.5610 H          1           0.0684
     45 H7         11.1236   -44.8219    -3.1100 H          1           0.1144
     46 H8         10.0519   -48.0778     3.8308 H          1           0.0159
     47 H9          8.7032   -47.7090     2.7295 H          1           0.1243
     48 H10         7.4905   -49.4906     2.1952 H          1           0.1055
     49 H11         8.1088   -51.1250     2.4357 H          1           0.0857
     50 H12         5.7589   -50.0822     3.5717 H          1           0.0863
     51 H13         6.0297   -50.2098     5.3264 H          1           0.0903
     52 H14         6.5191   -48.2348     6.6548 H          1           0.1273
     53 H15         6.2580   -45.7962     6.8724 H          1           0.1210
     54 H16         5.7936   -44.4251     4.8804 H          1           0.1164
     55 H17         5.5914   -45.4927     2.6708 H          1           0.1166
     56 H18         5.8608   -47.9304     2.4520 H          1           0.1258
     57 H19         9.5524   -50.3829     7.6034 H          1           0.1252
     58 H20        11.9050   -50.5390     8.2459 H          1           0.1243
     59 H21        13.6567   -50.5970     6.5074 H          1           0.1250
     60 H22        13.0267   -50.5106     4.1400 H          1           0.1324
     61 H23        10.5268   -51.4134     2.7180 H          1           0.0913
     62 H24        11.5598   -50.0109     2.5514 H          1           0.0401
     63 H25        12.3455   -47.9354     3.0678 H          1           0.1138
     64 H26        13.9287   -46.8962     1.5003 H          1           0.1222
@<TRIPOS>BOND
     1    1    2 1
     2    2    3 2
     3    2    4 1
     4    4    5 1
     5    4   39 1
     6    4   40 1
     7    5    6 1
     8    5   41 1
     9    5   42 1
    10    6   38 1
    11    6    7 1
    12    6   43 1
    13    7    8 1
    14    7   44 1
    15    7   45 1
    16    8    9 1
    17    9   37 ar
    18    9   10 ar
    19   10   11 1
    20   10   14 ar
    21   11   12 1
    22   11   13 2
    23   14   15 1
    24   14   35 ar
    25   15   16 1
    26   15   46 1
    27   15   47 1
    28   16   34 1
    29   16   17 1
    30   17   18 1
    31   17   48 1
    32   17   49 1
    33   18   19 1
    34   18   26 am
    35   19   20 1
    36   19   50 1
    37   19   51 1
    38   20   25 ar
    39   20   21 ar
    40   21   22 ar
    41   21   52 1
    42   22   23 ar
    43   22   53 1
    44   23   24 ar
    45   23   54 1
    46   24   25 ar
    47   24   55 1
    48   25   56 1
    49   26   27 2
    50   26   28 1
    51   28   33 ar
    52   28   29 ar
    53   29   30 ar
    54   29   57 1
    55   30   31 ar
    56   30   58 1
    57   31   32 ar
    58   31   59 1
    59   32   33 ar
    60   32   60 1
    61   33   34 1
    62   34   61 1
    63   34   62 1
    64   35   36 ar
    65   35   63 1
    66   36   37 ar
    67   36   64 1
    68   37   38 1
