AVX38748_0, 3
##########                 Name:           AVX38748_0
##########          Protonation:                  100
##########               SMILES:   )C[C@@H]([C@H]2Cc3ccc4c(c3C(=O)[O-])OC[C@@H](O4)CCC(=O)[O-])NC(=O)CCCC[NH3+]
##########            Long Name:   ]methyl]-2-(3-oxido-3-oxo-propyl)-2,3-dihydro-1,4-benzodioxine-5-carboxylate
##########          FlexRecCode: 1
##########               Number:                  551
##########   Ligand Source File: /raid1/people/rgc/Examples/sampl4/screening/ligands/build_1//sampl4-hivint-00000
##########           GlobalRank: 135
##########                 Rank:                    1
##########               Setnum:                    2
##########             Matchnum:                13971
##########                Cloud:                    1
##########        Electrostatic:            -0.935037
##########        Van der Waals:           -14.637514
##########  Ligand Polar Desolv:             4.425536
########## Ligand Apolar Desolv:            -1.781286
##########      Internal Energy:             0.000000
##########      Receptor Energy: 0.0
########## Receptor Desolvation:             0.000000
########## Receptor Hydrophobic:             0.000000
##########         Total Energy: -12.93
##########        Ligand Charge:            -1.000000
##########            Arbitrary:    +999.9990
##########     heavy atom count:   36
##########           pose count:    1
##########        Ligand Energy:             0.000000
# num electro vdwattr vdwrepu polsolv apolsol rdesolv rhydroe totalscore fullpol fullapo
#   1    0.24   -0.10    0.00   -0.75    0.04    0.00    0.00      -0.58  -16.71    0.86
#   2   -0.12    0.00    0.00    0.23    0.01    0.00    0.00       0.11   12.94    0.58
#   3   -0.15    0.00    0.00    0.19    0.01    0.00    0.00       0.05   14.01    0.60
#   4   -0.22    0.00    0.00    0.52    0.02    0.00    0.00       0.32   13.60    0.58
#   5    0.00   -0.07    0.00    0.02   -0.02    0.00    0.00      -0.07    0.54   -0.49
#   6    0.05   -0.14    0.00   -0.15   -0.02    0.00    0.00      -0.26   -2.02   -0.24
#   7    0.07   -0.40    0.04   -0.08   -0.03    0.00    0.00      -0.40   -0.43   -0.19
#   8    0.28   -0.56    0.05    0.03   -0.07    0.00    0.00      -0.27    0.09   -0.24
#   9   -0.44   -0.69    0.07   -1.20   -0.17    0.00    0.00      -2.42   -4.67   -0.66
#  10   -0.03   -1.47    1.07    2.42    0.11    0.00    0.00       2.10    8.42    0.37
#  11    0.37   -0.56    0.04    1.69    0.39    0.00    0.00       1.94    8.83    2.05
#  12    0.17   -0.52    0.13   -0.52   -0.07    0.00    0.00      -0.81   -2.38   -0.30
#  13   -0.20   -0.76    0.14    0.16   -0.08    0.00    0.00      -0.74    0.51   -0.27
#  14   -0.44   -0.76    0.09    0.18   -0.11    0.00    0.00      -1.02    0.73   -0.43
#  15   -0.79   -0.83    0.07    0.14   -0.14    0.00    0.00      -1.55    0.48   -0.47
#  16   -1.26   -0.81    0.05    0.17   -0.14    0.00    0.00      -1.99    0.58   -0.47
#  17   -1.00   -0.66    0.03    0.35   -0.11    0.00    0.00      -1.40    1.44   -0.47
#  18   -0.39   -0.45    0.02    0.36   -0.07    0.00    0.00      -0.53    2.13   -0.40
#  19   -0.25   -0.51    0.04    0.30   -0.06    0.00    0.00      -0.49    1.69   -0.35
#  20   -0.09   -0.28    0.01    0.14   -0.02    0.00    0.00      -0.23    0.88   -0.15
#  21   -0.06   -0.54    0.08    0.26   -0.04    0.00    0.00      -0.30    1.17   -0.19
#  22   -0.01   -0.62    0.06    0.29   -0.07    0.00    0.00      -0.34    1.39   -0.32
#  23    0.00   -1.77    0.58    0.38   -0.11    0.00    0.00      -0.93    1.27   -0.38
#  24   -0.01   -1.20    0.27    0.50   -0.11    0.00    0.00      -0.55    2.05   -0.46
#  25    0.01   -0.31    0.02   -0.06   -0.04    0.00    0.00      -0.39   -0.51   -0.30
#  26   -0.04   -0.15    0.00    0.58    0.04    0.00    0.00       0.45    8.30    0.62
#  27    0.00   -0.04    0.00   -0.03    0.00    0.00    0.00      -0.07   -1.76   -0.12
#  28   -0.01   -0.04    0.00    0.03    0.00    0.00    0.00      -0.02    1.41   -0.18
#  29   -0.01   -0.01    0.00    0.03    0.00    0.00    0.00       0.01    4.20   -0.24
#  30    0.03   -0.01    0.00   -0.09    0.00    0.00    0.00      -0.08  -16.89   -0.16
#  31   -0.05   -0.01    0.00    0.14    0.00    0.00    0.00       0.08   29.66   -0.41
#  32   -0.03    0.00    0.00    0.14    0.00    0.00    0.00       0.11   32.12   -0.43
#  33    0.00   -0.02    0.00   -0.01    0.00    0.00    0.00      -0.03   -0.62   -0.12
#  34    0.00   -0.04    0.00    0.23    0.01    0.00    0.00       0.21   11.35    0.61
#  35    0.00   -0.15    0.00   -0.02   -0.02    0.00    0.00      -0.18   -0.43   -0.30
#  36    0.00   -0.20    0.01    0.50   -0.03    0.00    0.00       0.27    5.98   -0.40
#  37    0.01   -0.10    0.00   -0.73    0.00    0.00    0.00      -0.82  -20.73   -0.11
#  38    0.01   -0.06    0.00    0.87   -0.01    0.00    0.00       0.81   31.89   -0.42
#  39    0.04   -0.09    0.00    1.24   -0.02    0.00    0.00       1.18   29.17   -0.39
#  40   -0.03   -0.01    0.00    0.03    0.00    0.00    0.00      -0.01    2.15   -0.28
#  41   -0.06   -0.02    0.00    0.06   -0.01    0.00    0.00      -0.03    2.89   -0.28
#  42   -0.02   -0.03    0.00    0.07   -0.01    0.00    0.00       0.01    2.14   -0.28
#  43   -0.02   -0.04    0.00    0.04   -0.01    0.00    0.00      -0.03    1.35   -0.28
#  44   -0.06   -0.16    0.02   -0.01   -0.04    0.00    0.00      -0.26   -0.09   -0.28
#  45   -0.06   -0.15    0.02    0.03   -0.03    0.00    0.00      -0.20    0.22   -0.28
#  46   -0.16   -0.16    0.01    0.10   -0.05    0.00    0.00      -0.26    0.52   -0.28
#  47   -0.39   -0.36    0.10   -0.04   -0.08    0.00    0.00      -0.76   -0.12   -0.28
#  48   -0.59   -0.01    0.00   -0.53    0.07    0.00    0.00      -1.07   -4.58    0.58
#  49    0.12   -0.37    0.45   -0.19   -0.05    0.00    0.00      -0.03   -0.99   -0.25
#  50    0.23   -0.49    0.19   -0.33   -0.10    0.00    0.00      -0.51   -0.92   -0.28
#  51    0.12   -0.19    0.01   -0.17   -0.05    0.00    0.00      -0.27   -0.87   -0.28
#  52    0.76   -0.18    0.01   -0.11   -0.05    0.00    0.00       0.44   -0.61   -0.28
#  53    1.59   -0.19    0.01   -0.12   -0.05    0.00    0.00       1.24   -0.74   -0.28
#  54    1.23   -0.15    0.01   -0.19   -0.04    0.00    0.00       0.87   -1.41   -0.28
#  55    0.35   -0.06    0.00   -0.04   -0.01    0.00    0.00       0.24   -0.95   -0.27
#  56    0.07   -0.04    0.00   -0.01   -0.01    0.00    0.00       0.01   -0.27   -0.23
#  57    0.22   -0.51    0.32   -0.07   -0.07    0.00    0.00      -0.12   -0.23   -0.25
#  58    0.02   -0.10    0.01   -0.25   -0.03    0.00    0.00      -0.35   -2.41   -0.28
#  59    0.00   -0.99    0.76   -1.30   -0.12    0.00    0.00      -1.64   -3.16   -0.28
#  60    0.02   -0.40    0.14   -0.87   -0.07    0.00    0.00      -1.18   -3.37   -0.28
#  61    0.01   -0.01    0.00   -0.02    0.00    0.00    0.00      -0.02   -2.15   -0.28
#  62    0.01   -0.02    0.00   -0.02    0.00    0.00    0.00      -0.03   -1.49   -0.28
#  63    0.01   -0.01    0.00   -0.03    0.00    0.00    0.00      -0.04   -2.61   -0.28
#  64    0.00    0.00    0.00   -0.01    0.00    0.00    0.00      -0.01   -2.68   -0.28
#  65    0.00    0.00    0.00   -0.01    0.00    0.00    0.00      -0.01   -2.31   -0.27
#  66    0.00   -0.01    0.00   -0.04    0.00    0.00    0.00      -0.05   -3.73   -0.28
#  67    0.00    0.00    0.00   -0.01    0.00    0.00    0.00      -0.02   -2.00   -0.28

@<TRIPOS>MOLECULE
       AVX38748_0       100
   67    70     0     0     0



@<TRIPOS>ATOM
      1 N1          5.9929   -49.0058     5.2507 N.4        1          -0.6380
      2 H1          5.9970   -49.2814     4.2801 H          1           0.4354
      3 H2          6.0148   -49.8288     5.8340 H          1           0.4359
      4 H3          6.8034   -48.4362     5.4420 H          1           0.4336
      5 C1          4.7748   -48.2359     5.5360 C.3        1          -0.0096
      6 C2          4.7414   -46.9879     4.6515 C.3        1          -0.1529
      7 C3          5.9704   -46.1241     4.9417 C.3        1          -0.1022
      8 C4          5.9371   -44.8761     4.0572 C.3        1          -0.1439
      9 C5          5.9433   -45.2876     2.6075 C.2        1           0.5126
     10 O1          5.0236   -44.9707     1.8832 O.2        1          -0.5482
     11 N2          6.9708   -46.0078     2.1157 N.am       1          -0.7064
     12 C6          6.9768   -46.4079     0.7064 C.3        1           0.1488
     13 C7          7.7483   -45.3827    -0.1516 C.3        1          -0.0843
     14 C8          9.1726   -45.8933    -0.1936 C.ar       1          -0.1036
     15 C9         10.3483   -45.2459    -0.5352 C.ar       1          -0.1142
     16 C10        11.5508   -45.9241    -0.4995 C.ar       1          -0.1249
     17 C11        11.5821   -47.2537    -0.1219 C.ar       1          -0.1191
     18 C12        10.4107   -47.9010     0.2190 C.ar       1          -0.0856
     19 C13         9.2039   -47.2225     0.1839 C.ar       1          -0.0742
     20 C14         7.8026   -47.6963     0.5054 C.3        1          -0.0587
     21 C15         7.2379   -48.5124    -0.6591 C.3        1          -0.0518
     22 C16         5.8252   -48.9299    -0.3415 C.ar       1          -0.0806
     23 C17         4.7901   -48.5377    -1.1607 C.ar       1          -0.1122
     24 C18         3.4886   -48.9163    -0.8753 C.ar       1          -0.1347
     25 C19         3.2128   -49.6943     0.2375 C.ar       1           0.0509
     26 O2          1.9278   -50.0542     0.5059 O.3        1          -0.3012
     27 C20         1.7424   -51.1488     1.4092 C.3        1           0.0509
     28 C21         2.1496   -52.4577     0.7298 C.3        1          -0.0812
     29 C22         1.9481   -53.6215     1.7025 C.3        1          -0.1799
     30 C23         0.4977   -53.6943     2.1050 C.2        1           0.4916
     31 O3         -0.2821   -54.3698     1.4551 O.co2      1          -0.7014
     32 O4          0.1040   -53.0779     3.0806 O.co2      1          -0.7088
     33 C24         2.6373   -50.8946     2.6281 C.3        1           0.0257
     34 O5          3.9914   -50.8648     2.1659 O.3        1          -0.2953
     35 C25         4.2465   -50.1002     1.0736 C.ar       1           0.0614
     36 C26         5.5649   -49.7210     0.7830 C.ar       1          -0.1010
     37 C27         6.6680   -50.1485     1.6585 C.2        1           0.5470
     38 O6          7.2527   -51.2000     1.4366 O.co2      1          -0.6863
     39 O7          7.0005   -49.4523     2.6080 O.co2      1          -0.6889
     40 H4          3.8992   -48.8511     5.3293 H          1           0.1359
     41 H5          4.7704   -47.9382     6.5846 H          1           0.1340
     42 H6          4.7459   -47.2854     3.6029 H          1           0.0870
     43 H7          3.8376   -46.4165     4.8632 H          1           0.0902
     44 H8          5.9660   -45.8264     5.9903 H          1           0.0844
     45 H9          6.8743   -46.6955     4.7301 H          1           0.0806
     46 H10         5.0334   -44.3048     4.2688 H          1           0.0938
     47 H11         6.8127   -44.2608     4.2639 H          1           0.0999
     48 H12         7.7066   -46.2612     2.6950 H          1           0.4034
     49 H13         5.9594   -46.5384     0.3381 H          1           0.1078
     50 H14         7.3314   -45.3419    -1.1580 H          1           0.0883
     51 H15         7.7131   -44.3976     0.3133 H          1           0.0710
     52 H16        10.3247   -44.2074    -0.8306 H          1           0.1117
     53 H17        12.4659   -45.4165    -0.7668 H          1           0.1177
     54 H18        12.5215   -47.7858    -0.0938 H          1           0.1215
     55 H19        10.4359   -48.9397     0.5139 H          1           0.1234
     56 H20         7.8045   -48.2907     1.4190 H          1           0.1106
     57 H21         7.2424   -47.9051    -1.5643 H          1           0.0856
     58 H22         7.8528   -49.3991    -0.8133 H          1           0.0665
     59 H23         4.9942   -47.9310    -2.0307 H          1           0.1176
     60 H24         2.6838   -48.6030    -1.5239 H          1           0.1249
     61 H25         0.6983   -51.2013     1.7178 H          1           0.0773
     62 H26         1.5342   -52.6141    -0.1561 H          1           0.0721
     63 H27         3.1987   -52.4051     0.4389 H          1           0.0823
     64 H28         2.2382   -54.5540     1.2186 H          1           0.0555
     65 H29         2.5635   -53.4651     2.5885 H          1           0.0646
     66 H30         2.3802   -49.9380     3.0831 H          1           0.1162
     67 H31         2.5114   -51.6982     3.3538 H          1           0.0719
@<TRIPOS>BOND
     1    1    2 1
     2    1    3 1
     3    1    4 1
     4    1    5 1
     5    5    6 1
     6    5   40 1
     7    5   41 1
     8    6    7 1
     9    6   42 1
    10    6   43 1
    11    7    8 1
    12    7   44 1
    13    7   45 1
    14    8    9 1
    15    8   46 1
    16    8   47 1
    17    9   10 2
    18    9   11 am
    19   11   12 1
    20   11   48 1
    21   12   20 1
    22   12   13 1
    23   12   49 1
    24   13   14 1
    25   13   50 1
    26   13   51 1
    27   14   19 ar
    28   14   15 ar
    29   15   16 ar
    30   15   52 1
    31   16   17 ar
    32   16   53 1
    33   17   18 ar
    34   17   54 1
    35   18   19 ar
    36   18   55 1
    37   19   20 1
    38   20   21 1
    39   20   56 1
    40   21   22 1
    41   21   57 1
    42   21   58 1
    43   22   36 ar
    44   22   23 ar
    45   23   24 ar
    46   23   59 1
    47   24   25 ar
    48   24   60 1
    49   25   35 ar
    50   25   26 1
    51   26   27 1
    52   27   28 1
    53   27   33 1
    54   27   61 1
    55   28   29 1
    56   28   62 1
    57   28   63 1
    58   29   30 1
    59   29   64 1
    60   29   65 1
    61   30   31 1
    62   30   32 2
    63   33   34 1
    64   33   66 1
    65   33   67 1
    66   34   35 1
    67   35   36 ar
    68   36   37 1
    69   37   38 1
    70   37   39 2
