AVX38672_0, 3
##########                 Name:           AVX38672_0
##########          Protonation:                  100
##########               SMILES:   CC(C)(C)NC(=O)[C@H](c1ccccc1)NC(=O)N(C)Cc2ccc3c(c2C(=O)[O-])OCO3
##########            Long Name:   1-phenyl-ethyl]carbamoyl-methyl-amino]methyl]-1,3-benzodioxole-4-carboxylate
##########          FlexRecCode: 1
##########               Number:                   51
##########   Ligand Source File: /raid1/people/rgc/Examples/sampl4/screening/ligands/build_1//sampl4-hivint-00000
##########           GlobalRank: 44
##########                 Rank:                    1
##########               Setnum:                    9
##########             Matchnum:                12945
##########                Cloud:                    1
##########        Electrostatic:           -30.225231
##########        Van der Waals:           -26.493166
##########  Ligand Polar Desolv:            28.506273
########## Ligand Apolar Desolv:            -2.095548
##########      Internal Energy:             0.000000
##########      Receptor Energy: 0.0
########## Receptor Desolvation:             0.000000
########## Receptor Hydrophobic:             0.000000
##########         Total Energy: -30.31
##########        Ligand Charge:            -1.000000
##########            Arbitrary:    +999.9990
##########     heavy atom count:   32
##########           pose count:    1
##########        Ligand Energy:             0.000000
# num electro vdwattr vdwrepu polsolv apolsol rdesolv rhydroe totalscore fullpol fullapo
#   1    0.27   -0.52    0.03   -0.21   -0.16    0.00    0.00      -0.59   -0.66   -0.51
#   2   -3.31   -0.61    0.02    2.51    0.28    0.00    0.00      -1.10   10.49    1.19
#   3    1.87   -0.56    0.04   -1.57   -0.09    0.00    0.00      -0.31   -5.47   -0.31
#   4   -0.67   -1.00    0.09    0.45   -0.14    0.00    0.00      -1.27    1.31   -0.41
#   5   -1.09   -1.21    0.12    0.55   -0.16    0.00    0.00      -1.80    1.40   -0.42
#   6   -0.67   -2.22    0.54    0.26   -0.22    0.00    0.00      -2.31    0.56   -0.47
#   7   -0.02   -1.94    0.35   -0.12   -0.15    0.00    0.00      -1.89   -0.26   -0.33
#   8   -1.22   -1.99    0.46    2.36    0.26    0.00    0.00      -0.13    4.80    0.52
#   9    1.70   -0.95    0.10   -1.41    0.01    0.00    0.00      -0.55   -2.97    0.02
#  10   -5.30   -1.51    0.27    4.08    0.15    0.00    0.00      -2.31    9.21    0.34
#  11    1.29   -1.69    0.41   -0.34   -0.14    0.00    0.00      -0.47   -0.81   -0.32
#  12   -2.49   -1.58    0.35    2.57   -0.16    0.00    0.00      -1.31    6.42   -0.41
#  13   15.97   -2.94    1.08   -8.38   -0.08    0.00    0.00       5.66  -18.37   -0.17
#  14  -24.04   -5.47    3.43   15.11   -0.18    0.00    0.00     -11.15   28.00   -0.33
#  15  -18.46   -3.30    1.79   13.66   -0.24    0.00    0.00      -6.56   31.30   -0.56
#  16    2.96   -0.68    0.11   -2.49   -0.40    0.00    0.00      -0.49  -12.09   -1.92
#  17   -1.84   -0.91    0.20    3.78    0.10    0.00    0.00       1.32   14.70    0.37
#  18   -3.17   -0.60    0.07    1.63    0.32    0.00    0.00      -1.75    8.50    1.69
#  19    0.46   -0.50    0.10   -0.40   -0.05    0.00    0.00      -0.39   -2.01   -0.25
#  20    0.16   -0.35    0.02   -0.62   -0.07    0.00    0.00      -0.85   -5.08   -0.55
#  21   -0.04   -0.26    0.01    0.79    0.03    0.00    0.00       0.53    6.86    0.29
#  22   -0.48   -0.22    0.00    0.38    0.17    0.00    0.00      -0.14    4.31    1.96
#  23    0.02   -0.09    0.00   -0.04   -0.01    0.00    0.00      -0.12   -0.84   -0.12
#  24    0.01   -0.04    0.00    0.03    0.00    0.00    0.00      -0.01    1.10   -0.16
#  25    0.03   -0.12    0.00    0.02   -0.01    0.00    0.00      -0.07    0.25   -0.17
#  26   -0.01   -0.16    0.01    0.08   -0.02    0.00    0.00      -0.09    0.90   -0.16
#  27   -0.19   -0.52    0.05    0.19   -0.06    0.00    0.00      -0.53    1.11   -0.33
#  28   -0.17   -0.62    0.09    0.19   -0.08    0.00    0.00      -0.58    1.07   -0.44
#  29   -0.05   -0.50    0.12    0.11   -0.06    0.00    0.00      -0.38    0.87   -0.47
#  30   -0.05   -0.43    0.10    0.08   -0.05    0.00    0.00      -0.35    0.72   -0.47
#  31   -0.09   -0.39    0.04    0.10   -0.06    0.00    0.00      -0.40    0.80   -0.47
#  32   -0.19   -0.40    0.03    0.13   -0.06    0.00    0.00      -0.48    1.00   -0.45
#  33    0.13   -0.14    0.00   -0.12   -0.04    0.00    0.00      -0.16   -0.82   -0.28
#  34    0.05   -0.24    0.05   -0.25   -0.06    0.00    0.00      -0.44   -0.96   -0.22
#  35    0.43   -0.17    0.01   -0.17   -0.05    0.00    0.00       0.05   -0.90   -0.28
#  36    1.32   -0.33    0.07   -0.26   -0.07    0.00    0.00       0.73   -0.89   -0.23
#  37    0.87   -0.13    0.00   -0.20   -0.03    0.00    0.00       0.53   -1.82   -0.24
#  38    0.91   -0.25    0.05   -0.65   -0.05    0.00    0.00       0.01   -2.62   -0.21
#  39    0.22   -0.95    0.85   -1.10   -0.13    0.00    0.00      -1.11   -2.31   -0.28
#  40    0.38   -0.38    0.21   -0.56   -0.07    0.00    0.00      -0.42   -2.37   -0.28
#  41    0.74   -0.26    0.02   -0.50   -0.09    0.00    0.00      -0.08   -1.65   -0.28
#  42    2.13   -0.01    0.00   -0.39    0.03    0.00    0.00       1.77   -4.31    0.37
#  43    0.40   -0.52    0.49   -0.31   -0.07    0.00    0.00       0.00   -1.21   -0.26
#  44    0.44    0.00    0.00   -0.07    0.02    0.00    0.00       0.39   -1.76    0.55
#  45    0.00   -0.01    0.00    0.00    0.00    0.00    0.00      -0.02   -0.37   -0.28
#  46    0.00   -0.01    0.00   -0.01    0.00    0.00    0.00      -0.02   -0.48   -0.28
#  47   -0.01   -0.01    0.00    0.00    0.00    0.00    0.00      -0.03   -0.24   -0.22
#  48   -0.02   -0.02    0.00    0.00   -0.01    0.00    0.00      -0.04   -0.11   -0.28
#  49   -0.03   -0.04    0.00    0.00   -0.01    0.00    0.00      -0.08   -0.11   -0.28
#  50   -0.02   -0.05    0.00   -0.01   -0.01    0.00    0.00      -0.09   -0.13   -0.28
#  51    0.00   -0.02    0.00   -0.01   -0.01    0.00    0.00      -0.03   -0.24   -0.22
#  52    0.01   -0.10    0.02   -0.04   -0.03    0.00    0.00      -0.14   -0.40   -0.28
#  53    0.00   -0.05    0.00   -0.01   -0.01    0.00    0.00      -0.07   -0.33   -0.28
#  54    0.24   -0.17    0.05   -0.15   -0.04    0.00    0.00      -0.08   -0.93   -0.27
#  55    0.05   -0.06    0.01   -0.04   -0.02    0.00    0.00      -0.06   -0.71   -0.28
#  56    0.04   -0.05    0.00   -0.03   -0.01    0.00    0.00      -0.05   -0.58   -0.28
#  57    0.00   -0.08    0.00   -0.04   -0.02    0.00    0.00      -0.13   -0.68   -0.28
#  58    0.28   -0.06    0.00   -0.05   -0.01    0.00    0.00       0.17   -0.97   -0.28

@<TRIPOS>MOLECULE
       AVX38672_0       100
   58    60     0     0     0



@<TRIPOS>ATOM
      1 C1          9.3736   -44.6790     0.6302 C.3        1           0.0769
      2 N1         10.0206   -45.9562     0.3203 N.am       1          -0.6275
      3 C2         11.4382   -46.1540     0.6324 C.3        1           0.1940
      4 C3         12.2759   -45.7316    -0.5469 C.ar       1          -0.0518
      5 C4         11.6694   -45.2442    -1.6831 C.ar       1          -0.1211
      6 C5         12.4317   -44.8533    -2.7726 C.ar       1          -0.1017
      7 C6         13.8111   -44.9480    -2.7303 C.ar       1          -0.0028
      8 O1         14.7800   -44.6410    -3.6385 O.3        1          -0.3193
      9 C7         15.9576   -45.3558    -3.2345 C.3        1           0.2047
     10 O2         15.7810   -45.4250    -1.8116 O.3        1          -0.2769
     11 C8         14.4404   -45.4386    -1.5880 C.ar       1           0.0772
     12 C9         13.6711   -45.8290    -0.4854 C.ar       1          -0.1202
     13 C10        14.3247   -46.3436     0.7287 C.2        1           0.5221
     14 O3         14.6480   -45.5734     1.6227 O.co2      1          -0.6799
     15 O4         14.5449   -47.5415     0.8442 O.co2      1          -0.6711
     16 C11         9.3117   -46.9494    -0.2520 C.2        1           0.7080
     17 O5          8.1351   -46.7851    -0.5109 O.2        1          -0.5763
     18 N2          9.9067   -48.1244    -0.5371 N.am       1          -0.7306
     19 C12         9.1360   -49.2040    -1.1592 C.3        1           0.1879
     20 C13         7.9892   -49.5857    -0.2590 C.2        1           0.5245
     21 O6          7.2244   -50.4662    -0.5916 O.2        1          -0.5262
     22 N3          7.8136   -48.9487     0.9157 N.am       1          -0.7163
     23 C14         6.6990   -49.3199     1.7907 C.3        1           0.1695
     24 C15         6.8283   -50.7927     2.1846 C.3        1          -0.1653
     25 C16         6.7277   -48.4509     3.0496 C.3        1          -0.1560
     26 C17         5.3766   -49.1037     1.0518 C.3        1          -0.1633
     27 C18        10.0278   -50.4002    -1.3713 C.ar       1          -0.0942
     28 C19         9.7929   -51.2584    -2.4292 C.ar       1          -0.0950
     29 C20        10.6109   -52.3557    -2.6237 C.ar       1          -0.1185
     30 C21        11.6641   -52.5943    -1.7607 C.ar       1          -0.1158
     31 C22        11.8994   -51.7356    -0.7033 C.ar       1          -0.1174
     32 C23        11.0840   -50.6360    -0.5113 C.ar       1          -0.1025
     33 H1          8.3268   -44.7193     0.3288 H          1           0.0572
     34 H2          9.4360   -44.4906     1.7020 H          1           0.0602
     35 H3          9.8764   -43.8766     0.0903 H          1           0.0774
     36 H4         11.7061   -45.5537     1.5019 H          1           0.1137
     37 H5         11.6194   -47.2069     0.8483 H          1           0.1065
     38 H6         10.5931   -45.1665    -1.7258 H          1           0.1243
     39 H7         11.9463   -44.4732    -3.6593 H          1           0.1223
     40 H8         15.9789   -46.3530    -3.6740 H          1           0.1233
     41 H9         16.8590   -44.7985    -3.4892 H          1           0.0744
     42 H10        10.8454   -48.2556    -0.3306 H          1           0.4043
     43 H11         8.7471   -48.8659    -2.1197 H          1           0.1213
     44 H12         8.4255   -48.2444     1.1816 H          1           0.4014
     45 H13         5.9989   -51.0687     2.8357 H          1           0.0550
     46 H14         6.8077   -51.4117     1.2877 H          1           0.0626
     47 H15         7.7702   -50.9466     2.7110 H          1           0.0793
     48 H16         5.8983   -48.7269     3.7007 H          1           0.0625
     49 H17         7.6696   -48.6048     3.5760 H          1           0.0736
     50 H18         6.6355   -47.4016     2.7690 H          1           0.0629
     51 H19         4.5473   -49.3798     1.7030 H          1           0.0785
     52 H20         5.2846   -48.0544     0.7713 H          1           0.0621
     53 H21         5.3562   -49.7227     0.1549 H          1           0.0542
     54 H22         8.9701   -51.0720    -3.1035 H          1           0.1183
     55 H23        10.4270   -53.0266    -3.4498 H          1           0.1215
     56 H24        12.3027   -53.4519    -1.9122 H          1           0.1206
     57 H25        12.7220   -51.9222    -0.0289 H          1           0.1231
     58 H26        11.2703   -49.9629     0.3126 H          1           0.1241
@<TRIPOS>BOND
     1    1    2 1
     2    1   33 1
     3    1   34 1
     4    1   35 1
     5    2    3 1
     6    2   16 am
     7    3    4 1
     8    3   36 1
     9    3   37 1
    10    4   12 ar
    11    4    5 ar
    12    5    6 ar
    13    5   38 1
    14    6    7 ar
    15    6   39 1
    16    7   11 ar
    17    7    8 1
    18    8    9 1
    19    9   10 1
    20    9   40 1
    21    9   41 1
    22   10   11 1
    23   11   12 ar
    24   12   13 1
    25   13   14 1
    26   13   15 2
    27   16   17 2
    28   16   18 am
    29   18   19 1
    30   18   42 1
    31   19   20 1
    32   19   27 1
    33   19   43 1
    34   20   21 2
    35   20   22 am
    36   22   23 1
    37   22   44 1
    38   23   24 1
    39   23   25 1
    40   23   26 1
    41   24   45 1
    42   24   46 1
    43   24   47 1
    44   25   48 1
    45   25   49 1
    46   25   50 1
    47   26   51 1
    48   26   52 1
    49   26   53 1
    50   27   32 ar
    51   27   28 ar
    52   28   29 ar
    53   28   54 1
    54   29   30 ar
    55   29   55 1
    56   30   31 ar
    57   30   56 1
    58   31   32 ar
    59   31   57 1
    60   32   58 1
