AVX38784_5, 3
##########                 Name:           AVX38784_0
##########          Protonation:                   23
##########               SMILES:   CC[C@@H](C)NC(=O)c1ccccc1CN(C)Cc2ccc3c(c2C(=O)[O-])OC[C@H](O3)CCC(=O)[O-]
##########            Long Name:   ]methyl]-2-(3-oxido-3-oxo-propyl)-2,3-dihydro-1,4-benzodioxine-5-carboxylate
##########          FlexRecCode: 1
##########               Number:                   36
##########   Ligand Source File: /raid1/people/rgc/Examples/sampl4/screening/ligands/build_1//sampl4-hivint-00000
##########           GlobalRank: 125
##########                 Rank:                    1
##########               Setnum:                    7
##########             Matchnum:                  683
##########                Cloud:                    1
##########        Electrostatic:           -34.636890
##########        Van der Waals:           -15.398424
##########  Ligand Polar Desolv:            32.714020
########## Ligand Apolar Desolv:            -2.619099
##########      Internal Energy:             0.000000
##########      Receptor Energy: 0.0
########## Receptor Desolvation:             0.000000
########## Receptor Hydrophobic:             0.000000
##########         Total Energy: -19.94
##########        Ligand Charge:            -2.000000
##########            Arbitrary:    +999.9990
##########     heavy atom count:   35
##########           pose count:    1
##########        Ligand Energy:             0.000000
# num electro vdwattr vdwrepu polsolv apolsol rdesolv rhydroe totalscore fullpol fullapo
#   1    0.01   -0.02    0.00    0.03    0.00    0.00    0.00       0.01    1.67   -0.20
#   2    0.02   -0.03    0.00    0.02   -0.01    0.00    0.00       0.00    0.82   -0.24
#   3   -0.02   -0.04    0.00   -0.04   -0.01    0.00    0.00      -0.10   -1.66   -0.25
#   4    0.02   -0.02    0.00    0.02    0.00    0.00    0.00       0.02    1.69   -0.19
#   5    0.23   -0.10    0.00    0.34    0.07    0.00    0.00       0.54    9.44    1.82
#   6   -0.18   -0.15    0.00   -0.57   -0.03    0.00    0.00      -0.93  -11.29   -0.64
#   7    0.08   -0.13    0.00    0.85    0.02    0.00    0.00       0.83   15.79    0.32
#   8    0.08   -0.31    0.01    0.38   -0.04    0.00    0.00       0.12    3.52   -0.41
#   9    0.06   -0.35    0.02    0.09   -0.06    0.00    0.00      -0.24    0.73   -0.44
#  10    0.12   -0.80    0.12    0.28   -0.09    0.00    0.00      -0.38    1.45   -0.47
#  11    0.08   -1.98    1.58    0.54   -0.12    0.00    0.00       0.10    2.13   -0.47
#  12    0.08   -1.65    0.78    1.09   -0.10    0.00    0.00       0.19    4.04   -0.38
#  13    0.00   -0.60    0.05    0.34   -0.07    0.00    0.00      -0.29    1.78   -0.39
#  14   -0.10   -0.38    0.02   -1.02   -0.07    0.00    0.00      -1.55   -4.31   -0.28
#  15    1.02   -0.84    0.08    5.02    0.58    0.00    0.00       5.87   16.91    1.95
#  16   -0.07   -1.37    0.42   -0.37   -0.18    0.00    0.00      -1.58   -0.91   -0.45
#  17   -0.05   -0.64    0.17   -1.14   -0.09    0.00    0.00      -1.76   -3.97   -0.31
#  18   -0.01   -0.78    0.09    0.31   -0.08    0.00    0.00      -0.48    1.20   -0.32
#  19   -0.16   -0.92    0.06    0.79   -0.15    0.00    0.00      -0.38    2.21   -0.41
#  20   -0.50   -0.84    0.05    0.70   -0.16    0.00    0.00      -0.75    1.98   -0.46
#  21    0.15   -0.68    0.04   -0.05   -0.08    0.00    0.00      -0.61   -0.20   -0.30
#  22   -2.53   -0.63    0.03    2.79    0.18    0.00    0.00      -0.15    9.82    0.62
#  23    0.43   -0.49    0.03   -0.54   -0.03    0.00    0.00      -0.60   -2.23   -0.12
#  24   -0.74   -1.54    1.21    0.51   -0.05    0.00    0.00      -0.62    1.67   -0.18
#  25   -2.73   -0.97    0.18    1.84   -0.10    0.00    0.00      -1.77    4.78   -0.25
#  26   13.78   -2.21    0.69   -7.97   -0.07    0.00    0.00       4.22  -18.79   -0.16
#  27  -23.47   -4.06    5.01   14.10   -0.18    0.00    0.00      -8.58   32.83   -0.41
#  28  -23.23   -3.70    2.61   16.79   -0.21    0.00    0.00      -7.73   34.89   -0.43
#  29    0.10   -0.48    0.06   -0.10   -0.03    0.00    0.00      -0.44   -0.48   -0.12
#  30   -0.79   -0.33    0.01    1.84    0.04    0.00    0.00       0.77   12.60    0.27
#  31    0.23   -0.52    0.03   -0.26   -0.06    0.00    0.00      -0.58   -1.38   -0.30
#  32   -0.12   -0.51    0.03    1.48   -0.08    0.00    0.00       0.80    7.84   -0.41
#  33    0.21   -0.32    0.01   -2.93   -0.02    0.00    0.00      -3.05  -22.60   -0.17
#  34    0.08   -0.19    0.00    2.71   -0.03    0.00    0.00       2.58   31.51   -0.32
#  35   -0.26   -0.37    0.03    5.86   -0.09    0.00    0.00       5.17   38.03   -0.59
#  36    0.00   -0.01    0.00   -0.01    0.00    0.00    0.00      -0.02   -0.82   -0.28
#  37    0.00    0.00    0.00    0.00    0.00    0.00    0.00      -0.01   -0.21   -0.28
#  38    0.00   -0.01    0.00   -0.01    0.00    0.00    0.00      -0.02   -0.39   -0.26
#  39   -0.02   -0.01    0.00   -0.01    0.00    0.00    0.00      -0.03   -0.81   -0.28
#  40   -0.01   -0.02    0.00   -0.01   -0.01    0.00    0.00      -0.05   -0.73   -0.28
#  41   -0.01   -0.01    0.00   -0.01    0.00    0.00    0.00      -0.03   -0.43   -0.26
#  42    0.00    0.00    0.00   -0.01    0.00    0.00    0.00      -0.02   -0.91   -0.28
#  43    0.00    0.00    0.00    0.00    0.00    0.00    0.00      -0.01    0.04   -0.28
#  44   -0.01    0.00    0.00   -0.01    0.00    0.00    0.00      -0.02   -0.99   -0.28
#  45   -0.15    0.00    0.00   -0.07    0.01    0.00    0.00      -0.22   -4.04    0.45
#  46   -0.06   -0.03    0.00   -0.05    0.00    0.00    0.00      -0.14   -2.03   -0.22
#  47   -0.11   -0.16    0.02   -0.32   -0.04    0.00    0.00      -0.61   -2.15   -0.28
#  48   -0.12   -0.75    1.36   -0.76   -0.08    0.00    0.00      -0.34   -2.75   -0.28
#  49   -0.46   -0.59    0.44   -0.64   -0.06    0.00    0.00      -1.31   -2.17   -0.22
#  50   -0.02   -0.07    0.00   -0.02   -0.02    0.00    0.00      -0.12   -0.36   -0.25
#  51   -0.07   -0.19    0.03   -0.31   -0.04    0.00    0.00      -0.58   -1.69   -0.22
#  52   -0.24   -0.50    0.27   -0.70   -0.08    0.00    0.00      -1.25   -1.94   -0.22
#  53   -0.20   -0.46    0.15   -0.47   -0.09    0.00    0.00      -1.07   -1.17   -0.23
#  54   -0.06   -0.81    0.70   -0.56   -0.12    0.00    0.00      -0.86   -1.35   -0.28
#  55    0.02   -0.21    0.11   -0.18   -0.03    0.00    0.00      -0.29   -1.17   -0.20
#  56    0.00   -0.33    0.12   -0.61   -0.08    0.00    0.00      -0.91   -2.17   -0.27
#  57    0.09   -0.22    0.02   -1.16   -0.07    0.00    0.00      -1.35   -4.55   -0.28
#  58    0.69   -0.20    0.02   -0.94   -0.06    0.00    0.00      -0.48   -4.55   -0.28
#  59    0.71   -0.13    0.00   -0.28   -0.03    0.00    0.00       0.28   -2.66   -0.28
#  60    0.52   -0.77    1.28   -0.78   -0.07    0.00    0.00       0.18   -3.10   -0.28
#  61    0.63   -1.14    2.84   -0.56   -0.09    0.00    0.00       1.67   -1.67   -0.28
#  62    0.78   -0.39    0.19   -0.72   -0.07    0.00    0.00      -0.22   -2.67   -0.27
#  63    0.78   -0.24    0.02   -0.75   -0.07    0.00    0.00      -0.25   -3.20   -0.28
#  64    0.43   -0.34    0.21   -0.59   -0.07    0.00    0.00      -0.36   -2.32   -0.28
#  65    0.48   -0.10    0.01   -0.49   -0.03    0.00    0.00      -0.14   -4.66   -0.28

@<TRIPOS>MOLECULE
       AVX38784_0        23
   65    67     0     0     0



@<TRIPOS>ATOM
      1 C1          6.8684   -51.9174     2.2668 C.3        1          -0.1550
      2 C2          7.0469   -50.9269     3.4192 C.3        1          -0.1290
      3 C3          5.7581   -50.1234     3.6051 C.3        1           0.1402
      4 C4          4.6048   -51.0762     3.9255 C.3        1          -0.1627
      5 N1          5.9289   -49.1749     4.7084 N.am       1          -0.7274
      6 C5          5.2588   -48.0054     4.7016 C.2        1           0.5620
      7 O1          4.5129   -47.7378     3.7800 O.2        1          -0.5273
      8 C6          5.4311   -47.0483     5.8150 C.ar       1          -0.1527
      9 C7          5.7315   -47.5111     7.0973 C.ar       1          -0.0952
     10 C8          5.8915   -46.6126     8.1316 C.ar       1          -0.1429
     11 C9          5.7546   -45.2551     7.9004 C.ar       1          -0.0967
     12 C10         5.4570   -44.7899     6.6320 C.ar       1          -0.0934
     13 C11         5.3001   -45.6775     5.5875 C.ar       1           0.0034
     14 C12         4.9816   -45.1686     4.2052 C.3        1           0.1073
     15 N2          6.2317   -44.9204     3.4747 N.3        1          -0.5106
     16 C13         6.8234   -43.6341     3.8655 C.3        1           0.0188
     17 C14         6.0140   -44.9804     2.0231 C.3        1           0.1152
     18 C15         7.3300   -45.2145     1.3270 C.ar       1          -0.0543
     19 C16         8.1047   -44.1439     0.9395 C.ar       1          -0.1373
     20 C17         9.3142   -44.3512     0.2974 C.ar       1          -0.1256
     21 C18         9.7597   -45.6377     0.0369 C.ar       1           0.0304
     22 O2         10.9481   -45.8159    -0.6032 O.3        1          -0.3047
     23 C19        11.5368   -47.1180    -0.5157 C.3        1           0.0508
     24 C20        12.6526   -47.2506    -1.5542 C.3        1          -0.0809
     25 C21        13.7240   -46.1910    -1.2897 C.3        1          -0.1793
     26 C22        14.2962   -46.3886     0.0904 C.2        1           0.4919
     27 O3         14.8436   -47.4393     0.3786 O.co2      1          -0.7016
     28 O4         14.2118   -45.4979     0.9185 O.co2      1          -0.7116
     29 C23        10.4443   -48.1592    -0.7940 C.3        1           0.0193
     30 O5          9.4114   -47.9973     0.1842 O.3        1          -0.2595
     31 C24         8.9915   -46.7288     0.4244 C.ar       1           0.0783
     32 C25         7.7683   -46.5196     1.0789 C.ar       1          -0.1156
     33 C26         6.9476   -47.6675     1.4971 C.2        1           0.5274
     34 O6          7.1007   -48.1566     2.6080 O.co2      1          -0.6691
     35 O7          6.1121   -48.1326     0.7338 O.co2      1          -0.6773
     36 H1          7.7865   -52.4899     2.1343 H          1           0.0535
     37 H2          6.0467   -52.5963     2.4950 H          1           0.0573
     38 H3          6.6449   -51.3718     1.3500 H          1           0.0579
     39 H4          7.2704   -51.4725     4.3360 H          1           0.0753
     40 H5          7.8684   -50.2480     3.1907 H          1           0.0648
     41 H6          5.5346   -49.5778     2.6882 H          1           0.0897
     42 H7          3.6866   -50.5036     4.0580 H          1           0.0536
     43 H8          4.4776   -51.7819     3.1047 H          1           0.0622
     44 H9          4.8280   -51.6217     4.8425 H          1           0.0620
     45 H10         6.5243   -49.3883     5.4438 H          1           0.3958
     46 H11         5.8380   -48.5703     7.2791 H          1           0.1155
     47 H12         6.1239   -46.9694     9.1241 H          1           0.1192
     48 H13         5.8801   -44.5559     8.7138 H          1           0.1223
     49 H14         5.3511   -43.7292     6.4584 H          1           0.1497
     50 H15         4.3905   -45.9126     3.6714 H          1           0.0985
     51 H16         4.4149   -44.2406     4.2813 H          1           0.0562
     52 H17         7.7477   -43.4754     3.3099 H          1           0.0565
     53 H18         6.1230   -42.8292     3.6428 H          1           0.0681
     54 H19         7.0390   -43.6428     4.9340 H          1           0.0140
     55 H20         5.3303   -45.7971     1.7917 H          1           0.1192
     56 H21         5.5844   -44.0388     1.6810 H          1           0.0121
     57 H22         7.7670   -43.1372     1.1370 H          1           0.1141
     58 H23         9.9141   -43.5047    -0.0025 H          1           0.1211
     59 H24        11.9448   -47.2706     0.4835 H          1           0.0742
     60 H25        13.0979   -48.2430    -1.4843 H          1           0.0808
     61 H26        12.2387   -47.1077    -2.5524 H          1           0.0709
     62 H27        14.5189   -46.2855    -2.0296 H          1           0.0643
     63 H28        13.2786   -45.1986    -1.3597 H          1           0.0548
     64 H29        10.0336   -48.0035    -1.7916 H          1           0.0676
     65 H30        10.8653   -49.1621    -0.7217 H          1           0.1134
@<TRIPOS>BOND
     1    1    2 1
     2    1   36 1
     3    1   37 1
     4    1   38 1
     5    2    3 1
     6    2   39 1
     7    2   40 1
     8    3    4 1
     9    3    5 1
    10    3   41 1
    11    4   42 1
    12    4   43 1
    13    4   44 1
    14    5    6 am
    15    5   45 1
    16    6    7 2
    17    6    8 1
    18    8   13 ar
    19    8    9 ar
    20    9   10 ar
    21    9   46 1
    22   10   11 ar
    23   10   47 1
    24   11   12 ar
    25   11   48 1
    26   12   13 ar
    27   12   49 1
    28   13   14 1
    29   14   15 1
    30   14   50 1
    31   14   51 1
    32   15   16 1
    33   15   17 1
    34   16   52 1
    35   16   53 1
    36   16   54 1
    37   17   18 1
    38   17   55 1
    39   17   56 1
    40   18   32 ar
    41   18   19 ar
    42   19   20 ar
    43   19   57 1
    44   20   21 ar
    45   20   58 1
    46   21   31 ar
    47   21   22 1
    48   22   23 1
    49   23   24 1
    50   23   29 1
    51   23   59 1
    52   24   25 1
    53   24   60 1
    54   24   61 1
    55   25   26 1
    56   25   62 1
    57   25   63 1
    58   26   27 1
    59   26   28 2
    60   29   30 1
    61   29   64 1
    62   29   65 1
    63   30   31 1
    64   31   32 ar
    65   32   33 1
    66   33   34 1
    67   33   35 2
