AVX38742_3, 3
##########                 Name:           AVX38742_0
##########          Protonation:                  100
##########               SMILES:   c1ccc\2c(c1)C/C(=N/O)/C2=C/c3ccc4c(c3C(=O)[O-])OC[C@@H](O4)CCC(=O)[O-]
##########            Long Name:   ]methyl]-2-(3-oxido-3-oxo-propyl)-2,3-dihydro-1,4-benzodioxine-5-carboxylate
##########          FlexRecCode: 1
##########               Number:                  135
##########   Ligand Source File: /raid1/people/rgc/Examples/sampl4/screening/ligands/build_1//sampl4-hivint-00000
##########           GlobalRank: 120
##########                 Rank:                    1
##########               Setnum:                    1
##########             Matchnum:                22673
##########                Cloud:                    1
##########        Electrostatic:           -27.410809
##########        Van der Waals:           -24.634838
##########  Ligand Polar Desolv:            33.641022
########## Ligand Apolar Desolv:            -2.014349
##########      Internal Energy:             0.000000
##########      Receptor Energy: 0.0
########## Receptor Desolvation:             0.000000
########## Receptor Hydrophobic:             0.000000
##########         Total Energy: -20.42
##########        Ligand Charge:            -2.000000
##########            Arbitrary:    +999.9990
##########     heavy atom count:   30
##########           pose count:    1
##########        Ligand Energy:             0.000000
# num electro vdwattr vdwrepu polsolv apolsol rdesolv rhydroe totalscore fullpol fullapo
#   1   -3.13   -4.23    3.38    6.95    0.30    0.00    0.00       3.27   11.79    0.51
#   2   -2.39   -3.69    1.53    4.51    0.68    0.00    0.00       0.65    7.51    1.13
#   3    1.21   -2.14    0.69   -1.77   -0.45    0.00    0.00      -2.45   -3.29   -0.83
#   4   -0.05   -1.34    0.26   -0.05   -0.17    0.00    0.00      -1.36   -0.08   -0.29
#   5   -0.31   -1.42    0.19    0.59   -0.21    0.00    0.00      -1.15    1.23   -0.44
#   6   -0.02   -1.81    0.45    0.38   -0.22    0.00    0.00      -1.22    0.81   -0.47
#   7    0.15   -1.17    0.13    0.36   -0.18    0.00    0.00      -0.71    0.92   -0.47
#   8    0.11   -0.90    0.14    0.69   -0.12    0.00    0.00      -0.08    2.58   -0.47
#   9   -0.21   -0.80    0.06    1.06   -0.11    0.00    0.00       0.01    3.65   -0.39
#  10   -0.08   -0.99    0.09    1.22   -0.16    0.00    0.00       0.07    3.13   -0.40
#  11   -1.34   -1.38    0.41    1.44   -0.18    0.00    0.00      -1.05    3.27   -0.41
#  12    0.86   -1.26    0.26    0.75   -0.13    0.00    0.00       0.48    1.88   -0.33
#  13   -0.64   -0.80    0.05    0.23   -0.09    0.00    0.00      -1.26    0.77   -0.30
#  14   -0.70   -1.22    0.63    0.44   -0.08    0.00    0.00      -0.92    1.65   -0.29
#  15   -0.65   -0.83    0.20    0.40   -0.10    0.00    0.00      -0.98    1.83   -0.46
#  16    0.21   -0.48    0.02   -0.14   -0.05    0.00    0.00      -0.43   -0.79   -0.30
#  17   -0.65   -0.25    0.01    1.04    0.07    0.00    0.00       0.22    9.29    0.62
#  18    0.04   -0.23    0.01   -0.26   -0.01    0.00    0.00      -0.45   -2.13   -0.12
#  19    0.00   -0.13    0.00    0.13   -0.01    0.00    0.00      -0.02    1.66   -0.18
#  20    0.02   -0.05    0.00    0.12   -0.01    0.00    0.00       0.08    4.65   -0.24
#  21   -0.03   -0.04    0.00   -0.29    0.00    0.00    0.00      -0.36  -18.47   -0.16
#  22    0.09   -0.03    0.00    0.43   -0.01    0.00    0.00       0.49   32.53   -0.41
#  23   -0.01   -0.02    0.00    0.45   -0.01    0.00    0.00       0.41   34.54   -0.43
#  24    0.04   -0.76    0.22   -0.10   -0.03    0.00    0.00      -0.63   -0.43   -0.12
#  25   -2.13   -1.21    0.30    3.61    0.08    0.00    0.00       0.65   12.38    0.27
#  26    0.63   -0.71    0.04   -0.45   -0.07    0.00    0.00      -0.55   -1.88   -0.30
#  27   -1.36   -0.87    0.05    2.78   -0.13    0.00    0.00       0.47    8.57   -0.41
#  28   12.04   -2.13    0.60   -9.56   -0.07    0.00    0.00       0.88  -22.86   -0.17
#  29  -20.48   -2.40    1.06   15.14   -0.15    0.00    0.00      -6.84   34.40   -0.34
#  30  -16.47   -4.57    3.76   18.20   -0.29    0.00    0.00       0.63   36.90   -0.59
#  31    3.86   -0.29    0.13   -5.44    0.78    0.00    0.00      -0.96   -8.69    1.25
#  32    0.50   -0.62    0.33   -1.14   -0.15    0.00    0.00      -1.08   -2.08   -0.28
#  33    0.40   -0.63    0.47   -1.10   -0.14    0.00    0.00      -1.00   -2.20   -0.28
#  34   -0.02   -0.62    0.27   -0.80   -0.12    0.00    0.00      -1.30   -1.87   -0.28
#  35   -0.20   -0.20    0.01   -0.58   -0.08    0.00    0.00      -1.05   -2.05   -0.28
#  36   -0.17   -0.13    0.02   -0.27   -0.03    0.00    0.00      -0.59   -2.48   -0.28
#  37    0.44   -0.11    0.00   -0.19   -0.02    0.00    0.00       0.13   -1.86   -0.15
#  38    1.71   -0.29    0.04   -1.09   -0.05    0.00    0.00       0.32   -3.59   -0.18
#  39    0.78   -0.60    1.24   -1.17   -0.07    0.00    0.00       0.19   -4.55   -0.27
#  40    0.49   -0.21    0.07   -0.85   -0.05    0.00    0.00      -0.55   -4.66   -0.28
#  41    0.00   -0.06    0.00   -0.16   -0.02    0.00    0.00      -0.23   -2.74   -0.28
#  42    0.01   -0.04    0.00   -0.05   -0.01    0.00    0.00      -0.09   -1.66   -0.28
#  43   -0.03   -0.05    0.00   -0.16   -0.01    0.00    0.00      -0.25   -3.03   -0.28
#  44   -0.01   -0.01    0.00   -0.04    0.00    0.00    0.00      -0.07   -3.15   -0.28
#  45    0.00   -0.02    0.00   -0.04    0.00    0.00    0.00      -0.06   -2.68   -0.27
#  46   -0.07   -0.64    0.72   -1.16   -0.07    0.00    0.00      -1.21   -4.60   -0.28
#  47    0.15   -0.17    0.02   -0.42   -0.05    0.00    0.00      -0.47   -2.35   -0.28

@<TRIPOS>MOLECULE
       AVX38742_0       100
   47    50     0     0     0



@<TRIPOS>ATOM
      1 O1         12.3094   -42.1699    -2.2871 O.3        1          -0.3928
      2 N1         11.2169   -41.4754    -1.7132 N.2        1          -0.3493
      3 C1         10.4043   -42.0927    -0.9140 C.2        1           0.1862
      4 C2          9.1930   -41.5099    -0.2247 C.3        1          -0.0119
      5 C3          8.5845   -42.6237     0.5916 C.ar       1          -0.1140
      6 C4          7.4727   -42.6466     1.4112 C.ar       1          -0.1025
      7 C5          7.1129   -43.8116     2.0636 C.ar       1          -0.1333
      8 C6          7.8652   -44.9613     1.8993 C.ar       1          -0.1140
      9 C7          8.9766   -44.9510     1.0843 C.ar       1          -0.1097
     10 C8          9.3470   -43.7764     0.4204 C.ar       1          -0.0203
     11 C9         10.4729   -43.5032    -0.5009 C.2        1          -0.1858
     12 C10        11.4146   -44.4038    -0.8964 C.2        1           0.0894
     13 C11        11.2328   -45.8286    -0.6074 C.ar       1          -0.0708
     14 C12        10.1250   -46.5129    -1.1130 C.ar       1          -0.1064
     15 C13         9.9560   -47.8543    -0.8416 C.ar       1          -0.1279
     16 C14        10.8798   -48.5435    -0.0654 C.ar       1           0.0465
     17 O2         10.6856   -49.8693     0.1760 O.3        1          -0.2998
     18 C15        11.4248   -50.4412     1.2604 C.3        1           0.0491
     19 C16        11.3659   -51.9677     1.1764 C.3        1          -0.0812
     20 C17         9.9087   -52.4271     1.2579 C.3        1          -0.1797
     21 C18         9.8507   -53.9308     1.1752 C.2        1           0.4919
     22 O3         10.4209   -54.6098     2.0121 O.co2      1          -0.7013
     23 O4          9.2336   -54.4682     0.2713 O.co2      1          -0.7108
     24 C19        12.8819   -49.9726     1.1488 C.3        1           0.0192
     25 O5         12.8987   -48.5426     1.2168 O.3        1          -0.2594
     26 C20        11.9905   -47.8839     0.4520 C.ar       1           0.0783
     27 C21        12.1813   -46.5225     0.1812 C.ar       1          -0.1100
     28 C22        13.3540   -45.8197     0.7157 C.2        1           0.5211
     29 O6         14.3893   -45.7734     0.0644 O.co2      1          -0.6794
     30 O7         13.2965   -45.2800     1.8128 O.co2      1          -0.6610
     31 H1         12.8588   -41.6269    -2.8688 H          1           0.3919
     32 H2          9.4930   -40.6898     0.4276 H          1           0.0988
     33 H3          8.4763   -41.1553    -0.9655 H          1           0.0986
     34 H4          6.8828   -41.7517     1.5431 H          1           0.1165
     35 H5          6.2427   -43.8241     2.7033 H          1           0.1185
     36 H6          7.5811   -45.8688     2.4113 H          1           0.1212
     37 H7          9.5620   -45.8498     0.9583 H          1           0.1381
     38 H8         12.2956   -44.0678    -1.4231 H          1           0.1610
     39 H9          9.3990   -45.9902    -1.7180 H          1           0.1259
     40 H10         9.0960   -48.3747    -1.2363 H          1           0.1303
     41 H11        11.0027   -50.1087     2.2087 H          1           0.0772
     42 H12        11.7981   -52.2965     0.2313 H          1           0.0721
     43 H13        11.9297   -52.3992     2.0035 H          1           0.0823
     44 H14         9.4764   -52.0982     2.2030 H          1           0.0553
     45 H15         9.3449   -51.9958     0.4308 H          1           0.0647
     46 H16        13.4653   -50.3867     1.9711 H          1           0.1166
     47 H17        13.3017   -50.3004     0.1977 H          1           0.0708
@<TRIPOS>BOND
     1    1    2 1
     2    1   31 1
     3    2    3 2
     4    3   11 1
     5    3    4 1
     6    4    5 1
     7    4   32 1
     8    4   33 1
     9    5   10 ar
    10    5    6 ar
    11    6    7 ar
    12    6   34 1
    13    7    8 ar
    14    7   35 1
    15    8    9 ar
    16    8   36 1
    17    9   10 ar
    18    9   37 1
    19   10   11 1
    20   11   12 2
    21   12   13 1
    22   12   38 1
    23   13   27 ar
    24   13   14 ar
    25   14   15 ar
    26   14   39 1
    27   15   16 ar
    28   15   40 1
    29   16   26 ar
    30   16   17 1
    31   17   18 1
    32   18   19 1
    33   18   24 1
    34   18   41 1
    35   19   20 1
    36   19   42 1
    37   19   43 1
    38   20   21 1
    39   20   44 1
    40   20   45 1
    41   21   22 1
    42   21   23 2
    43   24   25 1
    44   24   46 1
    45   24   47 1
    46   25   26 1
    47   26   27 ar
    48   27   28 1
    49   28   29 1
    50   28   30 2
