AVX38783_1, 3
##########                 Name:           AVX38783_0
##########          Protonation:                   61
##########               SMILES:   CC[NH+](Cc1ccccc1C(=O)NCc2ccco2)Cc3ccc4c(c3C(=O)[O-])OC[C@@H](O4)CCC(=O)[O-]
##########            Long Name:   ]methyl]-2-(3-oxido-3-oxo-propyl)-2,3-dihydro-1,4-benzodioxine-5-carboxylate
##########          FlexRecCode: 1
##########               Number:                  579
##########   Ligand Source File: /raid1/people/rgc/Examples/sampl4/screening/ligands/build_1//sampl4-hivint-00000
##########           GlobalRank: 88
##########                 Rank:                    1
##########               Setnum:                   99
##########             Matchnum:                11506
##########                Cloud:                    1
##########        Electrostatic:           -33.462994
##########        Van der Waals:           -17.639072
##########  Ligand Polar Desolv:            27.655764
########## Ligand Apolar Desolv:            -1.992650
##########      Internal Energy:             0.000000
##########      Receptor Energy: 0.0
########## Receptor Desolvation:             0.000000
########## Receptor Hydrophobic:             0.000000
##########         Total Energy: -25.44
##########        Ligand Charge:            -1.000000
##########            Arbitrary:    +999.9990
##########     heavy atom count:   39
##########           pose count:    1
##########        Ligand Energy:             0.000000
# num electro vdwattr vdwrepu polsolv apolsol rdesolv rhydroe totalscore fullpol fullapo
#   1  -23.47   -5.52    4.26   14.72   -0.21    0.00    0.00     -10.22   29.28   -0.41
#   2   13.56   -3.02    1.73   -7.09   -0.07    0.00    0.00       5.11  -16.34   -0.16
#   3  -22.59   -2.78    2.06   12.61   -0.17    0.00    0.00     -10.87   31.26   -0.43
#   4   -2.18   -1.07    0.30    1.33   -0.09    0.00    0.00      -1.70    3.88   -0.25
#   5   -0.60   -0.65    0.09    0.37   -0.05    0.00    0.00      -0.84    1.48   -0.18
#   6    0.44   -0.44    0.02   -0.47   -0.03    0.00    0.00      -0.48   -1.83   -0.12
#   7    0.14   -0.58    0.09   -0.17   -0.03    0.00    0.00      -0.55   -0.71   -0.12
#   8   -0.98   -0.42    0.03    1.52    0.05    0.00    0.00       0.20    8.61    0.27
#   9    0.21   -0.38    0.02   -0.09   -0.04    0.00    0.00      -0.28   -0.62   -0.30
#  10   -0.08   -0.29    0.01    0.33   -0.04    0.00    0.00      -0.08    2.74   -0.30
#  11    0.09   -0.27    0.01   -1.38   -0.02    0.00    0.00      -1.56  -12.84   -0.15
#  12   -0.03   -0.56    0.05    4.95   -0.11    0.00    0.00       4.30   25.67   -0.59
#  13   -0.04   -0.10    0.00    0.62   -0.01    0.00    0.00       0.47   14.15   -0.25
#  14   -0.03   -0.27    0.01    0.05   -0.03    0.00    0.00      -0.27    0.45   -0.23
#  15    0.00   -0.12    0.00   -0.01   -0.02    0.00    0.00      -0.15   -0.12   -0.28
#  16    0.04   -0.07    0.00    0.00    0.00    0.00    0.00      -0.03   -0.04    0.07
#  17   -0.05    0.00    0.00   -0.04    0.00    0.00    0.00      -0.09   -2.68    0.30
#  18    0.00   -0.03    0.00    0.00   -0.01    0.00    0.00      -0.03    0.15   -0.37
#  19    0.00   -0.04    0.00    0.01   -0.01    0.00    0.00      -0.03    0.55   -0.35
#  20    0.00   -0.02    0.00    0.01    0.00    0.00    0.00      -0.01    0.74   -0.34
#  21   -0.01   -0.07    0.00    0.00   -0.01    0.00    0.00      -0.09    0.08   -0.28
#  22    0.03   -0.07    0.00   -0.01   -0.01    0.00    0.00      -0.06   -0.22   -0.31
#  23    0.03   -0.03    0.00   -0.01   -0.01    0.00    0.00      -0.02   -0.66   -0.39
#  24    0.02   -0.02    0.00    0.00    0.00    0.00    0.00      -0.01   -0.51   -0.47
#  25    0.03   -0.03    0.00    0.00   -0.01    0.00    0.00      -0.01   -0.26   -0.47
#  26    0.03   -0.08    0.00    0.00   -0.01    0.00    0.00      -0.06    0.16   -0.44
#  27    0.04   -0.12    0.00    0.02   -0.02    0.00    0.00      -0.07    0.49   -0.40
#  28   -0.23   -0.27    0.01   -0.48   -0.06    0.00    0.00      -1.04   -4.96   -0.63
#  29    0.29   -0.71    0.09    1.25    0.04    0.00    0.00       0.97    6.92    0.22
#  30    0.22   -0.20    0.00    0.55    0.16    0.00    0.00       0.74    7.81    2.32
#  31   -0.04   -0.34    0.02   -0.61   -0.08    0.00    0.00      -1.05   -3.82   -0.47
#  32    0.01   -0.93    0.19    0.20   -0.06    0.00    0.00      -0.60    1.01   -0.31
#  33    0.05   -1.87    0.81    0.66   -0.13    0.00    0.00      -0.48    2.57   -0.51
#  34    0.07   -1.76    0.89    0.52   -0.12    0.00    0.00      -0.40    2.28   -0.51
#  35    0.01   -1.56    0.79    0.04   -0.05    0.00    0.00      -0.78    0.20   -0.27
#  36    0.06   -0.70    0.13    0.46    0.04    0.00    0.00      -0.01    2.76    0.25
#  37    0.04   -0.44    0.03    0.03   -0.06    0.00    0.00      -0.39    0.19   -0.39
#  38    0.06   -0.81    0.21    0.29   -0.09    0.00    0.00      -0.33    1.49   -0.46
#  39    0.15   -0.52    0.03    0.03   -0.05    0.00    0.00      -0.37    0.15   -0.30
#  40   -1.72   -0.58    0.03    1.91    0.16    0.00    0.00      -0.20    7.58    0.62
#  41    0.53   -0.21    0.03   -0.51   -0.06    0.00    0.00      -0.23   -2.27   -0.27
#  42    0.43   -0.72    1.09   -0.76   -0.09    0.00    0.00      -0.04   -2.48   -0.28
#  43    0.25   -0.09    0.00   -0.17   -0.02    0.00    0.00      -0.03   -2.16   -0.28
#  44    0.52   -0.47    0.25   -0.30   -0.07    0.00    0.00      -0.07   -1.25   -0.28
#  45    1.06   -0.15    0.01   -0.25   -0.04    0.00    0.00       0.62   -1.81   -0.28
#  46    0.88   -0.31    0.17   -0.68   -0.06    0.00    0.00      -0.01   -2.92   -0.28
#  47    0.51   -0.31    0.12   -0.32   -0.06    0.00    0.00      -0.06   -1.49   -0.28
#  48    0.00   -0.04    0.00    0.07   -0.01    0.00    0.00       0.01    1.23   -0.27
#  49    0.01   -0.04    0.00   -0.02   -0.01    0.00    0.00      -0.06   -0.59   -0.15
#  50   -0.01    0.00    0.00    0.01    0.00    0.00    0.00      -0.01    0.99   -0.20
#  51    0.00   -0.01    0.00    0.03    0.00    0.00    0.00       0.01    2.31   -0.28
#  52    0.01   -0.01    0.00   -0.01    0.00    0.00    0.00      -0.02   -0.53   -0.22
#  53    0.00    0.00    0.00    0.00    0.00    0.00    0.00      -0.01   -0.11   -0.27
#  54    0.00    0.00    0.00    0.00    0.00    0.00    0.00      -0.01   -0.49   -0.28
#  55   -0.08   -0.04    0.00    0.00    0.00    0.00    0.00      -0.12    0.06   -0.14
#  56   -0.03   -0.02    0.00    0.05   -0.01    0.00    0.00      -0.01    2.42   -0.27
#  57   -0.03    0.00    0.00    0.02    0.00    0.00    0.00      -0.01    2.60   -0.28
#  58   -0.03    0.00    0.00    0.01    0.00    0.00    0.00      -0.02    1.55   -0.28
#  59   -0.04    0.00    0.00    0.00    0.00    0.00    0.00      -0.04    0.60   -0.28
#  60   -0.05   -0.02    0.00    0.00    0.00    0.00    0.00      -0.07   -0.25   -0.22
#  61   -0.11    0.00    0.00   -0.06    0.01    0.00    0.00      -0.16   -3.36    0.43
#  62   -0.01   -0.06    0.00   -0.04   -0.01    0.00    0.00      -0.12   -0.94   -0.28
#  63   -0.02   -0.20    0.02   -0.14   -0.05    0.00    0.00      -0.38   -0.82   -0.28
#  64   -0.06   -0.50    0.18   -0.59   -0.08    0.00    0.00      -1.05   -2.01   -0.28
#  65   -0.04   -0.26    0.05   -0.24   -0.05    0.00    0.00      -0.53   -1.32   -0.28
#  66   -0.12   -0.33    0.12   -0.22   -0.05    0.00    0.00      -0.58   -1.18   -0.28
#  67   -0.11   -0.08    0.00    0.01   -0.02    0.00    0.00      -0.20    0.13   -0.28
#  68   -0.49   -0.41    0.43   -0.36   -0.06    0.00    0.00      -0.89   -1.74   -0.28

@<TRIPOS>MOLECULE
       AVX38783_0        61
   68    71     0     0     0



@<TRIPOS>ATOM
      1 O1         14.6132   -46.5346     1.6630 O.co2      1          -0.7002
      2 C1         14.3673   -47.1888     0.6639 C.2        1           0.4906
      3 O2         14.8840   -46.8936    -0.4002 O.co2      1          -0.7067
      4 C2         13.4299   -48.3659     0.7455 C.3        1          -0.1799
      5 C3         12.0562   -47.8914     1.2240 C.3        1          -0.0820
      6 C4         11.4994   -46.8634     0.2370 C.3        1           0.0502
      7 C5         10.8529   -47.5815    -0.9534 C.3        1           0.0201
      8 O3          9.8318   -48.4386    -0.4330 O.3        1          -0.2606
      9 C6          8.9744   -47.8904     0.4654 C.ar       1           0.0902
     10 C7          7.7506   -48.5206     0.7328 C.ar       1          -0.0928
     11 C8          7.3954   -49.7705     0.0415 C.2        1           0.5279
     12 O4          6.7907   -49.7311    -1.0212 O.co2      1          -0.6371
     13 O5          7.7049   -50.8487     0.5296 O.co2      1          -0.7096
     14 C9          6.8688   -47.9544     1.6600 C.ar       1          -0.1137
     15 C10         5.5514   -48.6244     1.9543 C.3        1           0.0605
     16 N1          5.7212   -49.5718     3.0641 N.4        1          -0.3539
     17 H1          6.6015   -50.0542     2.9628 H          1           0.4368
     18 C11         4.6233   -50.5479     3.0468 C.3        1           0.0285
     19 C12         4.9085   -51.6066     2.0130 C.2        1          -0.1684
     20 C13         5.0113   -52.8621     2.3724 C.2        1          -0.1474
     21 C14         5.7068   -48.8411     4.3383 C.3        1           0.0225
     22 C15         5.8809   -49.8130     5.4767 C.ar       1          -0.0821
     23 C16         4.7767   -50.3996     6.0601 C.ar       1          -0.1053
     24 C17         4.9348   -51.2921     7.1052 C.ar       1          -0.0926
     25 C18         6.1997   -51.6027     7.5725 C.ar       1          -0.1036
     26 C19         7.3119   -51.0237     6.9979 C.ar       1          -0.0818
     27 C20         7.1597   -50.1262     5.9395 C.ar       1          -0.1088
     28 C21         8.3478   -49.5063     5.3150 C.2        1           0.5435
     29 O6          8.4774   -48.2977     5.3227 O.2        1          -0.5088
     30 N2          9.2872   -50.2811     4.7375 N.am       1          -0.7107
     31 C22        10.4646   -49.6667     4.1189 C.3        1           0.2018
     32 C23        11.7106   -50.1708     4.8001 C.2        1          -0.0419
     33 C24        12.3019   -49.6126     5.8718 C.2        1          -0.1763
     34 C25        13.4325   -50.4054     6.1751 C.2        1          -0.2182
     35 C26        13.4647   -51.4006     5.2706 C.2        1          -0.0261
     36 O7         12.4159   -51.2567     4.4439 O.3        1          -0.1702
     37 C27         7.2059   -46.7845     2.3038 C.ar       1          -0.1138
     38 C28         8.4145   -46.1620     2.0382 C.ar       1          -0.1211
     39 C29         9.2988   -46.7091     1.1226 C.ar       1           0.0633
     40 O8         10.4810   -46.0830     0.8711 O.3        1          -0.2987
     41 H2         13.3337   -48.8227    -0.2395 H          1           0.0633
     42 H3         13.8265   -49.0982     1.4486 H          1           0.0560
     43 H4         11.3781   -48.7427     1.2831 H          1           0.0846
     44 H5         12.1523   -47.4345     2.2089 H          1           0.0721
     45 H6         12.3015   -46.2125    -0.1111 H          1           0.0801
     46 H7         10.4126   -46.8508    -1.6320 H          1           0.1197
     47 H8         11.6014   -48.1743    -1.4792 H          1           0.0699
     48 H9          4.8140   -47.8705     2.2297 H          1           0.1028
     49 H10         5.2103   -49.1599     1.0683 H          1           0.1590
     50 H11         4.5353   -51.0130     4.0286 H          1           0.1119
     51 H12         3.6904   -50.0410     2.7999 H          1           0.1200
     52 H13         5.0282   -51.3302     0.9759 H          1           0.1407
     53 H14         4.8915   -53.1384     3.4095 H          1           0.0938
     54 H15         5.2157   -53.6208     1.6316 H          1           0.1120
     55 H16         6.5213   -48.1169     4.3510 H          1           0.1637
     56 H17         4.7557   -48.3200     4.4476 H          1           0.1194
     57 H18         3.7866   -50.1613     5.7003 H          1           0.1381
     58 H19         4.0671   -51.7482     7.5585 H          1           0.1364
     59 H20         6.3162   -52.2997     8.3893 H          1           0.1369
     60 H21         8.2986   -51.2669     7.3636 H          1           0.1336
     61 H22         9.1838   -51.2455     4.7313 H          1           0.4013
     62 H23        10.4975   -49.9283     3.0612 H          1           0.1126
     63 H24        10.4063   -48.5833     4.2234 H          1           0.0899
     64 H25        11.9757   -48.7283     6.3989 H          1           0.1525
     65 H26        14.1357   -50.2430     6.9784 H          1           0.1509
     66 H27        14.2056   -52.1847     5.2202 H          1           0.2051
     67 H28         6.5239   -46.3498     3.0195 H          1           0.1207
     68 H29         8.6693   -45.2447     2.5482 H          1           0.1293
@<TRIPOS>BOND
     1    1    2 1
     2    2    3 2
     3    2    4 1
     4    4    5 1
     5    4   41 1
     6    4   42 1
     7    5    6 1
     8    5   43 1
     9    5   44 1
    10    6   40 1
    11    6    7 1
    12    6   45 1
    13    7    8 1
    14    7   46 1
    15    7   47 1
    16    8    9 1
    17    9   39 ar
    18    9   10 ar
    19   10   11 1
    20   10   14 ar
    21   11   12 1
    22   11   13 2
    23   14   15 1
    24   14   37 ar
    25   15   16 1
    26   15   48 1
    27   15   49 1
    28   16   17 1
    29   16   18 1
    30   16   21 1
    31   18   19 1
    32   18   50 1
    33   18   51 1
    34   19   20 2
    35   19   52 1
    36   20   53 1
    37   20   54 1
    38   21   22 1
    39   21   55 1
    40   21   56 1
    41   22   27 ar
    42   22   23 ar
    43   23   24 ar
    44   23   57 1
    45   24   25 ar
    46   24   58 1
    47   25   26 ar
    48   25   59 1
    49   26   27 ar
    50   26   60 1
    51   27   28 1
    52   28   29 2
    53   28   30 am
    54   30   31 1
    55   30   61 1
    56   31   32 1
    57   31   62 1
    58   31   63 1
    59   32   36 1
    60   32   33 2
    61   33   34 1
    62   33   64 1
    63   34   35 2
    64   34   65 1
    65   35   36 1
    66   35   66 1
    67   37   38 ar
    68   37   67 1
    69   38   39 ar
    70   38   68 1
    71   39   40 1
