AVX38782_1, 3
##########                 Name:           AVX38782_0
##########          Protonation:                   61
##########               SMILES:   =CC[NH+](Cc1ccccc1C(=O)NCC2CCC2)Cc3ccc4c(c3C(=O)[O-])OC[C@@H](O4)CCC(=O)[O-]
##########            Long Name:   ]methyl]-2-(3-oxido-3-oxo-propyl)-2,3-dihydro-1,4-benzodioxine-5-carboxylate
##########          FlexRecCode: 1
##########               Number:                  477
##########   Ligand Source File: /raid1/people/rgc/Examples/sampl4/screening/ligands/build_1//sampl4-hivint-00000
##########           GlobalRank: 93
##########                 Rank:                    1
##########               Setnum:                  251
##########             Matchnum:                10139
##########                Cloud:                    1
##########        Electrostatic:           -36.188652
##########        Van der Waals:           -16.198994
##########  Ligand Polar Desolv:            30.407305
########## Ligand Apolar Desolv:            -2.705069
##########      Internal Energy:             0.000000
##########      Receptor Energy: 0.0
########## Receptor Desolvation:             0.000000
########## Receptor Hydrophobic:             0.000000
##########         Total Energy: -24.69
##########        Ligand Charge:            -1.000000
##########            Arbitrary:    +999.9990
##########     heavy atom count:   38
##########           pose count:    1
##########        Ligand Energy:             0.000000
# num electro vdwattr vdwrepu polsolv apolsol rdesolv rhydroe totalscore fullpol fullapo
#   1  -21.46   -3.58    4.85   10.95   -0.15    0.00    0.00      -9.41   29.13   -0.41
#   2   11.37   -2.34    1.19   -6.76   -0.07    0.00    0.00       3.39  -16.37   -0.16
#   3  -19.60   -3.21    1.92   14.70   -0.20    0.00    0.00      -6.39   31.27   -0.43
#   4   -1.55   -1.22    0.36    1.70   -0.10    0.00    0.00      -0.81    3.91   -0.24
#   5   -0.70   -1.25    0.26    0.62   -0.08    0.00    0.00      -1.14    1.44   -0.18
#   6    0.65   -1.38    0.55   -0.82   -0.05    0.00    0.00      -1.06   -1.83   -0.12
#   7    0.19   -1.09    0.22   -0.36   -0.06    0.00    0.00      -1.10   -0.76   -0.12
#   8   -2.09   -0.86    0.07    3.25    0.10    0.00    0.00       0.46    8.82    0.27
#   9    0.86   -0.79    0.05   -0.20   -0.09    0.00    0.00      -0.17   -0.68   -0.30
#  10   -0.50   -0.56    0.02    0.62   -0.07    0.00    0.00      -0.49    2.84   -0.30
#  11    2.04   -0.78    0.16   -2.98   -0.03    0.00    0.00      -1.61  -13.17   -0.15
#  12   -1.54   -0.67    0.05    6.76   -0.15    0.00    0.00       4.45   26.22   -0.59
#  13   -3.08   -1.71    1.59    3.92   -0.07    0.00    0.00       0.66   14.58   -0.25
#  14   -0.42   -0.62    0.04    0.10   -0.05    0.00    0.00      -0.95    0.48   -0.23
#  15    0.05   -0.24    0.01   -0.02   -0.04    0.00    0.00      -0.23   -0.16   -0.28
#  16   -0.33   -0.17    0.00    0.01    0.00    0.00    0.00      -0.48    0.15    0.07
#  17    0.82    0.00    0.00   -0.11    0.01    0.00    0.00       0.72   -2.89    0.30
#  18    0.00   -0.07    0.00    0.01   -0.01    0.00    0.00      -0.08    0.13   -0.37
#  19   -0.03   -0.20    0.00    0.05   -0.03    0.00    0.00      -0.21    0.61   -0.35
#  20   -0.02   -0.21    0.01    0.06   -0.03    0.00    0.00      -0.18    0.77   -0.34
#  21    0.00   -0.17    0.00    0.01   -0.03    0.00    0.00      -0.18    0.07   -0.28
#  22   -0.01   -0.16    0.00   -0.01   -0.02    0.00    0.00      -0.20   -0.21   -0.31
#  23   -0.06   -0.19    0.01   -0.05   -0.03    0.00    0.00      -0.32   -0.66   -0.39
#  24   -0.02   -0.14    0.00   -0.03   -0.03    0.00    0.00      -0.21   -0.53   -0.47
#  25    0.00   -0.06    0.00   -0.01   -0.01    0.00    0.00      -0.08   -0.32   -0.47
#  26    0.01   -0.06    0.00    0.00   -0.01    0.00    0.00      -0.06    0.06   -0.44
#  27    0.03   -0.12    0.00    0.02   -0.02    0.00    0.00      -0.09    0.45   -0.40
#  28   -0.15   -0.14    0.00   -0.25   -0.03    0.00    0.00      -0.58   -4.73   -0.63
#  29    0.21   -0.29    0.02    0.73    0.02    0.00    0.00       0.69    7.26    0.21
#  30    0.16   -0.06    0.00    0.13    0.05    0.00    0.00       0.27    6.87    2.31
#  31   -0.03   -0.04    0.00   -0.05   -0.01    0.00    0.00      -0.13   -2.42   -0.42
#  32    0.04   -0.09    0.00    0.05   -0.01    0.00    0.00      -0.01    1.13   -0.24
#  33    0.05   -0.28    0.01    0.15   -0.05    0.00    0.00      -0.12    1.08   -0.33
#  34    0.07   -0.40    0.04    0.21   -0.05    0.00    0.00      -0.13    1.33   -0.34
#  35    0.05   -0.11    0.00    0.12   -0.02    0.00    0.00       0.04    2.23   -0.33
#  36   -0.75   -1.71    0.63    0.07   -0.11    0.00    0.00      -1.88    0.24   -0.39
#  37   -2.18   -2.22    0.86    0.61   -0.18    0.00    0.00      -3.11    1.55   -0.46
#  38    1.02   -1.37    0.26    0.05   -0.11    0.00    0.00      -0.15    0.13   -0.30
#  39   -7.13   -3.12    3.93    3.22    0.26    0.00    0.00      -2.83    7.65    0.62
#  40    0.49   -0.31    0.03   -0.74   -0.09    0.00    0.00      -0.61   -2.26   -0.27
#  41    0.07   -0.85    1.66   -0.74   -0.09    0.00    0.00       0.05   -2.45   -0.28
#  42    0.35   -0.66    0.32   -0.88   -0.11    0.00    0.00      -0.98   -2.17   -0.28
#  43    0.66   -0.42    0.18   -0.34   -0.07    0.00    0.00       0.00   -1.31   -0.28
#  44    0.92   -0.70    0.55   -0.73   -0.12    0.00    0.00      -0.09   -1.78   -0.28
#  45    1.19   -0.54    0.63   -1.04   -0.10    0.00    0.00       0.14   -2.96   -0.28
#  46    0.43   -0.47    0.09   -0.68   -0.12    0.00    0.00      -0.74   -1.54   -0.28
#  47   -0.02   -0.09    0.00    0.10   -0.02    0.00    0.00      -0.03    1.09   -0.27
#  48    0.11   -0.05    0.00   -0.03   -0.01    0.00    0.00       0.02   -0.65   -0.15
#  49    0.00   -0.01    0.00    0.01    0.00    0.00    0.00       0.00    0.93   -0.20
#  50   -0.01   -0.02    0.00    0.04   -0.01    0.00    0.00       0.01    2.19   -0.28
#  51    0.01   -0.07    0.00   -0.03   -0.01    0.00    0.00      -0.10   -0.55   -0.22
#  52    0.00   -0.02    0.00    0.00   -0.01    0.00    0.00      -0.03   -0.14   -0.27
#  53    0.01   -0.07    0.00   -0.04   -0.02    0.00    0.00      -0.11   -0.50   -0.28
#  54    0.11   -0.09    0.01    0.00   -0.01    0.00    0.00       0.01    0.01   -0.14
#  55   -0.02   -0.04    0.00    0.08   -0.01    0.00    0.00       0.00    2.24   -0.27
#  56    0.21   -0.06    0.00    0.14   -0.02    0.00    0.00       0.27    2.46   -0.28
#  57    0.04   -0.04    0.00    0.04   -0.01    0.00    0.00       0.04    1.52   -0.28
#  58    0.01   -0.01    0.00    0.01    0.00    0.00    0.00       0.01    0.72   -0.28
#  59   -0.02   -0.01    0.00    0.00    0.00    0.00    0.00      -0.03   -0.01   -0.22
#  60   -0.07    0.00    0.00   -0.02    0.00    0.00    0.00      -0.08   -2.30    0.43
#  61   -0.02   -0.01    0.00    0.00    0.00    0.00    0.00      -0.02    0.18   -0.28
#  62   -0.02   -0.01    0.00    0.00    0.00    0.00    0.00      -0.04   -0.37   -0.27
#  63   -0.03   -0.02    0.00   -0.02   -0.01    0.00    0.00      -0.08   -1.09   -0.28
#  64   -0.03   -0.08    0.00   -0.04   -0.02    0.00    0.00      -0.16   -0.60   -0.27
#  65   -0.02   -0.14    0.01   -0.08   -0.03    0.00    0.00      -0.26   -0.70   -0.28
#  66   -0.03   -0.12    0.01   -0.06   -0.03    0.00    0.00      -0.24   -0.61   -0.28
#  67   -0.05   -0.25    0.09   -0.15   -0.05    0.00    0.00      -0.41   -0.90   -0.28
#  68   -0.03   -0.03    0.00   -0.02   -0.01    0.00    0.00      -0.09   -0.96   -0.28
#  69   -0.03   -0.02    0.00   -0.01    0.00    0.00    0.00      -0.06   -0.68   -0.28
#  70    0.10   -0.64    0.66    0.00   -0.07    0.00    0.00       0.05    0.01   -0.28
#  71    3.56   -0.94    0.88   -0.82   -0.13    0.00    0.00       2.55   -1.81   -0.28

@<TRIPOS>MOLECULE
       AVX38782_0        61
   71    74     0     0     0



@<TRIPOS>ATOM
      1 O1         15.2824   -47.0205    -0.9292 O.co2      1          -0.7002
      2 C1         15.6108   -46.0028    -1.5146 C.2        1           0.4907
      3 O2         16.5057   -45.3050    -1.0690 O.co2      1          -0.7066
      4 C2         14.9148   -45.6105    -2.7924 C.3        1          -0.1802
      5 C3         13.4218   -45.4151    -2.5205 C.3        1          -0.0813
      6 C4         13.2334   -44.3116    -1.4775 C.3        1           0.0497
      7 C5         11.7897   -43.7969    -1.5190 C.3        1           0.0209
      8 O3         10.9296   -44.9160    -1.2826 O.3        1          -0.2600
      9 C6         11.2438   -45.7158    -0.2318 C.ar       1           0.0916
     10 C7         10.2773   -46.5857     0.2932 C.ar       1          -0.0914
     11 C8          8.9272   -46.6311    -0.2908 C.2        1           0.5283
     12 O4          8.0502   -45.8938     0.1380 O.co2      1          -0.6371
     13 O5          8.6819   -47.4061    -1.2051 O.co2      1          -0.7102
     14 C9         10.6037   -47.4100     1.3758 C.ar       1          -0.1133
     15 C10         9.5721   -48.3486     1.9468 C.3        1           0.0605
     16 N1          9.6506   -49.6420     1.2549 N.4        1          -0.3535
     17 H1          9.8049   -49.4877     0.2697 H          1           0.4371
     18 C11         8.3923   -50.3761     1.4443 C.3        1           0.0285
     19 C12         7.3555   -49.8516     0.4847 C.2        1          -0.1682
     20 C13         6.2427   -49.3332     0.9417 C.2        1          -0.1476
     21 C14        10.7629   -50.4262     1.8076 C.3        1           0.0230
     22 C15        10.8436   -51.7532     1.0979 C.ar       1          -0.0837
     23 C16        10.7460   -51.8089    -0.2773 C.ar       1          -0.1054
     24 C17        10.8200   -53.0261    -0.9304 C.ar       1          -0.0944
     25 C18        10.9920   -54.1952    -0.2104 C.ar       1          -0.1040
     26 C19        11.0913   -54.1536     1.1647 C.ar       1          -0.0833
     27 C20        11.0228   -52.9279     1.8296 C.ar       1          -0.1084
     28 C21        11.1344   -52.8752     3.3029 C.2        1           0.5382
     29 O6         12.2241   -52.7459     3.8256 O.2        1          -0.5115
     30 N2         10.0278   -52.9705     4.0662 N.am       1          -0.7101
     31 C22        10.1383   -52.9181     5.5262 C.3        1           0.1263
     32 C23        10.0257   -51.4658     5.9944 C.3        1          -0.1247
     33 C24        11.3461   -50.6837     5.8985 C.3        1          -0.1365
     34 C25        10.9745   -50.0448     7.2471 C.3        1          -0.1429
     35 C26        10.1297   -51.3006     7.5198 C.3        1          -0.1295
     36 C27        11.8684   -47.3635     1.9188 C.ar       1          -0.1142
     37 C28        12.8221   -46.5029     1.4003 C.ar       1          -0.1215
     38 C29        12.5152   -45.6797     0.3290 C.ar       1           0.0628
     39 O7         13.4632   -44.8378    -0.1665 O.3        1          -0.2989
     40 H2         15.3407   -44.6797    -3.1671 H          1           0.0632
     41 H3         15.0489   -46.3965    -3.5354 H          1           0.0559
     42 H4         12.9184   -45.1312    -3.4446 H          1           0.0845
     43 H5         12.9959   -46.3459    -2.1456 H          1           0.0718
     44 H6         13.9266   -43.4939    -1.6748 H          1           0.0796
     45 H7         11.6420   -43.0459    -0.7429 H          1           0.1191
     46 H8         11.5779   -43.3674    -2.4982 H          1           0.0694
     47 H9          9.7618   -48.4934     3.0103 H          1           0.1024
     48 H10         8.5781   -47.9229     1.8097 H          1           0.1588
     49 H11         8.5584   -51.4366     1.2558 H          1           0.1118
     50 H12         8.0425   -50.2393     2.4676 H          1           0.1197
     51 H13         7.5299   -49.9034    -0.5799 H          1           0.1407
     52 H14         6.0683   -49.2816     2.0063 H          1           0.0937
     53 H15         5.4996   -48.9573     0.2539 H          1           0.1120
     54 H16        11.6967   -49.8818     1.6670 H          1           0.1636
     55 H17        10.5965   -50.5930     2.8719 H          1           0.1183
     56 H18        10.6114   -50.8999    -0.8452 H          1           0.1373
     57 H19        10.7427   -53.0642    -2.0070 H          1           0.1358
     58 H20        11.0481   -55.1424    -0.7262 H          1           0.1363
     59 H21        11.2256   -55.0667     1.7256 H          1           0.1335
     60 H22         9.1583   -53.0738     3.6491 H          1           0.3972
     61 H23         9.3369   -53.5068     5.9726 H          1           0.0822
     62 H24        11.1020   -53.3249     5.8324 H          1           0.0731
     63 H25         9.1749   -50.9445     5.5558 H          1           0.0934
     64 H26        12.2328   -51.3161     5.9445 H          1           0.0840
     65 H27        11.3739   -49.9735     5.0720 H          1           0.0639
     66 H28        11.8208   -49.9323     7.9249 H          1           0.0723
     67 H29        10.3841   -49.1337     7.1508 H          1           0.0786
     68 H30         9.1755   -51.0887     8.0021 H          1           0.0719
     69 H31        10.6837   -52.1018     8.0090 H          1           0.0877
     70 H32        12.1180   -48.0012     2.7539 H          1           0.1203
     71 H33        13.8109   -46.4737     1.8336 H          1           0.1289
@<TRIPOS>BOND
     1    1    2 1
     2    2    3 2
     3    2    4 1
     4    4    5 1
     5    4   40 1
     6    4   41 1
     7    5    6 1
     8    5   42 1
     9    5   43 1
    10    6   39 1
    11    6    7 1
    12    6   44 1
    13    7    8 1
    14    7   45 1
    15    7   46 1
    16    8    9 1
    17    9   38 ar
    18    9   10 ar
    19   10   11 1
    20   10   14 ar
    21   11   12 1
    22   11   13 2
    23   14   15 1
    24   14   36 ar
    25   15   16 1
    26   15   47 1
    27   15   48 1
    28   16   17 1
    29   16   18 1
    30   16   21 1
    31   18   19 1
    32   18   49 1
    33   18   50 1
    34   19   20 2
    35   19   51 1
    36   20   52 1
    37   20   53 1
    38   21   22 1
    39   21   54 1
    40   21   55 1
    41   22   27 ar
    42   22   23 ar
    43   23   24 ar
    44   23   56 1
    45   24   25 ar
    46   24   57 1
    47   25   26 ar
    48   25   58 1
    49   26   27 ar
    50   26   59 1
    51   27   28 1
    52   28   29 2
    53   28   30 am
    54   30   31 1
    55   30   60 1
    56   31   32 1
    57   31   61 1
    58   31   62 1
    59   32   35 1
    60   32   33 1
    61   32   63 1
    62   33   34 1
    63   33   64 1
    64   33   65 1
    65   34   35 1
    66   34   66 1
    67   34   67 1
    68   35   68 1
    69   35   69 1
    70   36   37 ar
    71   36   70 1
    72   37   38 ar
    73   37   71 1
    74   38   39 1
