AVX38673_1, 3
##########                 Name:           AVX38673_0
##########          Protonation:                  100
##########               SMILES:   CCCCNC(=O)[C@@H](c1ccccc1)NC(=O)N(C)Cc2ccc3c(c2C(=O)[O-])OCO3
##########            Long Name:   1-phenyl-ethyl]carbamoyl-methyl-amino]methyl]-1,3-benzodioxole-4-carboxylate
##########          FlexRecCode: 1
##########               Number:                  414
##########   Ligand Source File: /raid1/people/rgc/Examples/sampl4/screening/ligands/build_1//sampl4-hivint-00000
##########           GlobalRank: 19
##########                 Rank:                    1
##########               Setnum:                   47
##########             Matchnum:                  359
##########                Cloud:                    1
##########        Electrostatic:           -42.899040
##########        Van der Waals:           -15.474071
##########  Ligand Polar Desolv:            25.024309
########## Ligand Apolar Desolv:            -2.017495
##########      Internal Energy:             0.000000
##########      Receptor Energy: 0.0
########## Receptor Desolvation:             0.000000
########## Receptor Hydrophobic:             0.000000
##########         Total Energy: -35.37
##########        Ligand Charge:            -1.000000
##########            Arbitrary:    +999.9990
##########     heavy atom count:   32
##########           pose count:    1
##########        Ligand Energy:             0.000000
# num electro vdwattr vdwrepu polsolv apolsol rdesolv rhydroe totalscore fullpol fullapo
#   1   -0.07   -0.07    0.00    0.01   -0.01    0.00    0.00      -0.13    0.35   -0.19
#   2   -0.06   -0.17    0.01    0.03   -0.02    0.00    0.00      -0.21    0.33   -0.25
#   3   -0.09   -0.38    0.08    0.04   -0.03    0.00    0.00      -0.38    0.29   -0.22
#   4    0.24   -0.75    0.23   -0.14   -0.09    0.00    0.00      -0.51   -0.64   -0.42
#   5   -2.28   -1.64    0.89    1.00    0.52    0.00    0.00      -1.51    4.41    2.28
#   6    2.07   -0.94    0.35   -0.94   -0.11    0.00    0.00       0.43   -5.21   -0.60
#   7   -0.79   -0.61    0.14    1.04    0.05    0.00    0.00      -0.18    7.41    0.38
#   8    0.91   -0.39    0.04   -0.39   -0.05    0.00    0.00       0.11   -2.09   -0.25
#   9   -2.38   -0.88    0.10    2.26    0.45    0.00    0.00      -0.45    8.57    1.69
#  10    6.88   -1.28    0.22   -4.38   -0.73    0.00    0.00       0.71  -12.30   -2.05
#  11  -11.27   -2.51    1.72    5.89    0.14    0.00    0.00      -6.03   15.56    0.37
#  12   -3.72   -1.45    0.22    4.72    0.56    0.00    0.00       0.32   10.27    1.21
#  13   -0.23   -1.84    0.61   -0.24   -0.21    0.00    0.00      -1.92   -0.55   -0.48
#  14    2.27   -1.08    0.14   -2.58   -0.15    0.00    0.00      -1.40   -5.36   -0.31
#  15   -0.53   -1.67    0.26    0.58   -0.18    0.00    0.00      -1.54    1.34   -0.41
#  16   -0.61   -2.90    1.34    0.65   -0.20    0.00    0.00      -1.72    1.35   -0.42
#  17   -0.65   -2.71    0.96    0.24   -0.22    0.00    0.00      -2.39    0.50   -0.47
#  18   -0.02   -1.63    0.51   -0.08   -0.12    0.00    0.00      -1.34   -0.23   -0.33
#  19   -2.27   -1.52    1.27    1.45    0.16    0.00    0.00      -0.92    4.79    0.52
#  20    1.23   -0.40    0.03   -0.60    0.00    0.00    0.00       0.26   -2.93    0.02
#  21   -2.43   -0.58    0.03    2.32    0.08    0.00    0.00      -0.58    9.34    0.34
#  22    0.85   -1.17    0.20   -0.24   -0.10    0.00    0.00      -0.46   -0.76   -0.32
#  23   -1.78   -1.51    0.32    2.51   -0.16    0.00    0.00      -0.62    6.51   -0.41
#  24   15.35   -2.83    2.32   -7.37   -0.07    0.00    0.00       7.41  -18.45   -0.17
#  25  -18.96   -5.08   11.11   10.08   -0.11    0.00    0.00      -2.97   28.15   -0.32
#  26  -27.25   -4.48    4.28   15.09   -0.27    0.00    0.00     -12.64   31.73   -0.56
#  27   -0.17   -0.27    0.01    0.13   -0.04    0.00    0.00      -0.34    1.21   -0.33
#  28   -0.16   -0.15    0.00    0.06   -0.02    0.00    0.00      -0.26    1.13   -0.44
#  29   -0.14   -0.09    0.00    0.04   -0.02    0.00    0.00      -0.22    0.94   -0.47
#  30   -0.11   -0.18    0.01    0.07   -0.04    0.00    0.00      -0.25    0.82   -0.47
#  31   -0.07   -0.38    0.04    0.12   -0.06    0.00    0.00      -0.36    0.91   -0.47
#  32    0.00   -0.46    0.07    0.14   -0.06    0.00    0.00      -0.31    1.07   -0.45
#  33    0.02   -0.01    0.00    0.00    0.00    0.00    0.00       0.00   -0.14   -0.28
#  34    0.03   -0.04    0.00    0.00   -0.01    0.00    0.00      -0.02   -0.13   -0.28
#  35    0.02   -0.01    0.00    0.00    0.00    0.00    0.00       0.01   -0.14   -0.28
#  36    0.03   -0.07    0.01   -0.01   -0.02    0.00    0.00      -0.06   -0.18   -0.28
#  37    0.03   -0.03    0.00    0.00   -0.01    0.00    0.00      -0.01   -0.20   -0.28
#  38    0.05   -0.04    0.00   -0.01   -0.01    0.00    0.00      -0.01   -0.20   -0.28
#  39    0.06   -0.31    0.22   -0.02   -0.04    0.00    0.00      -0.10   -0.17   -0.28
#  40    0.13   -0.33    0.13   -0.09   -0.07    0.00    0.00      -0.23   -0.36   -0.28
#  41    0.11   -0.20    0.07   -0.05   -0.04    0.00    0.00      -0.11   -0.35   -0.28
#  42   -0.69   -0.07    0.01   -0.45    0.14    0.00    0.00      -1.06   -1.78    0.55
#  43    0.97   -0.15    0.02   -0.17   -0.03    0.00    0.00       0.64   -1.28   -0.26
#  44   -0.94   -0.01    0.00   -0.72    0.06    0.00    0.00      -1.62   -4.23    0.37
#  45   -0.21   -0.94    0.72   -0.36   -0.13    0.00    0.00      -0.92   -0.76   -0.28
#  46   -0.83   -0.68    0.53   -0.34   -0.11    0.00    0.00      -1.43   -0.88   -0.28
#  47   -0.19   -1.05    1.42   -0.33   -0.09    0.00    0.00      -0.24   -0.85   -0.23
#  48    2.05   -0.41    0.12   -0.77   -0.10    0.00    0.00       0.89   -2.02   -0.26
#  49    1.09   -0.52    0.17   -0.25   -0.08    0.00    0.00       0.41   -0.62   -0.21
#  50   -0.15   -1.33    2.48   -1.14   -0.10    0.00    0.00      -0.23   -2.51   -0.21
#  51    0.59   -0.93    0.75   -1.10   -0.14    0.00    0.00      -0.83   -2.19   -0.28
#  52    0.66   -0.10    0.00   -0.22   -0.03    0.00    0.00       0.32   -2.32   -0.28
#  53    0.29   -0.08    0.00   -0.14   -0.02    0.00    0.00       0.05   -1.70   -0.28
#  54    0.23   -0.03    0.00   -0.02   -0.01    0.00    0.00       0.17   -0.98   -0.26
#  55    0.15   -0.01    0.00   -0.01    0.00    0.00    0.00       0.13   -0.77   -0.28
#  56    0.11   -0.04    0.00   -0.03   -0.01    0.00    0.00       0.04   -0.69   -0.28
#  57    0.05   -0.11    0.01   -0.09   -0.03    0.00    0.00      -0.18   -0.79   -0.28
#  58   -0.34   -0.15    0.03   -0.12   -0.03    0.00    0.00      -0.61   -1.06   -0.28

@<TRIPOS>MOLECULE
       AVX38673_0       100
   58    60     0     0     0



@<TRIPOS>ATOM
      1 C1         16.0341   -54.3667    -4.2772 C.3        1          -0.1528
      2 C2         16.1450   -53.3529    -3.1367 C.3        1          -0.1215
      3 C3         16.6093   -52.0061    -3.6949 C.3        1          -0.1330
      4 C4         16.7202   -50.9922    -2.5544 C.3        1           0.1189
      5 N1         17.1647   -49.7027    -3.0890 N.am       1          -0.7238
      6 C5         18.4808   -49.4223    -3.1651 C.2        1           0.5208
      7 O1         19.2971   -50.2376    -2.7910 O.2        1          -0.5310
      8 C6         18.9381   -48.0959    -3.7149 C.3        1           0.1894
      9 N2         17.7709   -47.2957    -4.0941 N.am       1          -0.7311
     10 C7         17.1988   -46.4706    -3.1952 C.2        1           0.7086
     11 O2         17.6513   -46.3902    -2.0695 O.2        1          -0.5749
     12 N3         16.1250   -45.7345    -3.5440 N.am       1          -0.6276
     13 C8         15.5798   -45.8313    -4.9004 C.3        1           0.0757
     14 C9         15.5031   -44.8374    -2.5670 C.3        1           0.1926
     15 C10        14.0676   -45.2441    -2.3542 C.ar       1          -0.0515
     16 C11        13.0753   -44.7066    -3.1434 C.ar       1          -0.1256
     17 C12        11.7525   -45.0746    -2.9550 C.ar       1          -0.1015
     18 C13        11.4143   -45.9870    -1.9719 C.ar       1          -0.0029
     19 O3         10.2194   -46.5132    -1.5805 O.3        1          -0.3191
     20 C14        10.4184   -47.0351    -0.2580 C.3        1           0.2047
     21 O4         11.8076   -47.3951    -0.2942 O.3        1          -0.2766
     22 C15        12.4063   -46.5407    -1.1651 C.ar       1           0.0781
     23 C16        13.7434   -46.1729    -1.3581 C.ar       1          -0.1193
     24 C17        14.8007   -46.7550    -0.5160 C.2        1           0.5223
     25 O5         15.3605   -47.7861    -0.8626 O.co2      1          -0.6799
     26 O6         15.1197   -46.2078     0.5306 O.co2      1          -0.6710
     27 C18        19.8044   -48.3260    -4.9263 C.ar       1          -0.0960
     28 C19        21.1702   -48.4807    -4.7800 C.ar       1          -0.0944
     29 C20        21.9650   -48.6918    -5.8912 C.ar       1          -0.1183
     30 C21        21.3940   -48.7484    -7.1486 C.ar       1          -0.1151
     31 C22        20.0278   -48.5951    -7.2950 C.ar       1          -0.1177
     32 C23        19.2325   -48.3882    -6.1833 C.ar       1          -0.1021
     33 H1         15.7034   -55.3261    -3.8795 H          1           0.0553
     34 H2         15.3123   -54.0097    -5.0118 H          1           0.0544
     35 H3         17.0074   -54.4865    -4.7528 H          1           0.0548
     36 H4         15.1716   -53.2330    -2.6611 H          1           0.0649
     37 H5         16.8667   -53.7099    -2.4020 H          1           0.0654
     38 H6         17.5828   -52.1260    -4.1704 H          1           0.0705
     39 H7         15.8875   -51.6491    -4.4295 H          1           0.0702
     40 H8         15.7468   -50.8725    -2.0788 H          1           0.0685
     41 H9         17.4420   -51.3494    -1.8199 H          1           0.0693
     42 H10        16.5119   -49.0507    -3.3881 H          1           0.4033
     43 H11        19.5108   -47.5652    -2.9543 H          1           0.1228
     44 H12        17.4098   -47.3599    -4.9921 H          1           0.4040
     45 H13        14.7200   -45.1680    -4.9945 H          1           0.0572
     46 H14        16.3440   -45.5400    -5.6209 H          1           0.0794
     47 H15        15.2695   -46.8580    -5.0947 H          1           0.0587
     48 H16        16.0422   -44.8997    -1.6217 H          1           0.1039
     49 H17        15.5392   -43.8136    -2.9391 H          1           0.1181
     50 H18        13.3294   -43.9934    -3.9136 H          1           0.1253
     51 H19        10.9817   -44.6466    -3.5787 H          1           0.1226
     52 H20        10.2331   -46.2698     0.4956 H          1           0.1231
     53 H21         9.7926   -47.9109    -0.0859 H          1           0.0745
     54 H22        21.6165   -48.4362    -3.7976 H          1           0.1184
     55 H23        23.0321   -48.8118    -5.7770 H          1           0.1217
     56 H24        22.0144   -48.9129    -8.0171 H          1           0.1209
     57 H25        19.5815   -48.6393    -8.2775 H          1           0.1236
     58 H26        18.1648   -48.2719    -6.2973 H          1           0.1246
@<TRIPOS>BOND
     1    1    2 1
     2    1   33 1
     3    1   34 1
     4    1   35 1
     5    2    3 1
     6    2   36 1
     7    2   37 1
     8    3    4 1
     9    3   38 1
    10    3   39 1
    11    4    5 1
    12    4   40 1
    13    4   41 1
    14    5    6 am
    15    5   42 1
    16    6    7 2
    17    6    8 1
    18    8    9 1
    19    8   27 1
    20    8   43 1
    21    9   10 am
    22    9   44 1
    23   10   11 2
    24   10   12 am
    25   12   13 1
    26   12   14 1
    27   13   45 1
    28   13   46 1
    29   13   47 1
    30   14   15 1
    31   14   48 1
    32   14   49 1
    33   15   23 ar
    34   15   16 ar
    35   16   17 ar
    36   16   50 1
    37   17   18 ar
    38   17   51 1
    39   18   22 ar
    40   18   19 1
    41   19   20 1
    42   20   21 1
    43   20   52 1
    44   20   53 1
    45   21   22 1
    46   22   23 ar
    47   23   24 1
    48   24   25 1
    49   24   26 2
    50   27   32 ar
    51   27   28 ar
    52   28   29 ar
    53   28   54 1
    54   29   30 ar
    55   29   55 1
    56   30   31 ar
    57   30   56 1
    58   31   32 ar
    59   31   57 1
    60   32   58 1
