AVX38747_0, 3
##########                 Name:           AVX38747_0
##########          Protonation:                  100
##########               SMILES:   1)C[C@H]([C@H]2Cc3ccc4c(c3C(=O)[O-])OC[C@H](O4)CCC(=O)[O-])NC(=O)CCCCC[NH3+]
##########            Long Name:   ]methyl]-2-(3-oxido-3-oxo-propyl)-2,3-dihydro-1,4-benzodioxine-5-carboxylate
##########          FlexRecCode: 1
##########               Number:                  193
##########   Ligand Source File: /raid1/people/rgc/Examples/sampl4/screening/ligands/build_1//sampl4-hivint-00000
##########           GlobalRank: 126
##########                 Rank:                    1
##########               Setnum:                   16
##########             Matchnum:                11150
##########                Cloud:                    1
##########        Electrostatic:           -31.893639
##########        Van der Waals:           -17.602032
##########  Ligand Polar Desolv:            31.751410
########## Ligand Apolar Desolv:            -2.086834
##########      Internal Energy:             0.000000
##########      Receptor Energy: 0.0
########## Receptor Desolvation:             0.000000
########## Receptor Hydrophobic:             0.000000
##########         Total Energy: -19.83
##########        Ligand Charge:            -1.000000
##########            Arbitrary:    +999.9990
##########     heavy atom count:   37
##########           pose count:    1
##########        Ligand Energy:             0.000000
# num electro vdwattr vdwrepu polsolv apolsol rdesolv rhydroe totalscore fullpol fullapo
#   1    0.20   -0.96    0.40   -2.73    0.16    0.00    0.00      -2.93  -14.74    0.86
#   2   -0.15   -0.01    0.00    0.87    0.04    0.00    0.00       0.76   11.72    0.58
#   3   -0.24   -0.03    0.00    2.00    0.11    0.00    0.00       1.85   10.52    0.58
#   4    0.11   -0.03    0.00    2.75    0.12    0.00    0.00       2.96   13.06    0.59
#   5    0.00   -0.52    0.09    0.13   -0.09    0.00    0.00      -0.38    0.74   -0.48
#   6    0.04   -0.18    0.01   -0.12   -0.02    0.00    0.00      -0.27   -1.35   -0.24
#   7    0.04   -0.19    0.01   -0.02   -0.02    0.00    0.00      -0.19   -0.20   -0.22
#   8    0.04   -0.18    0.01    0.09   -0.02    0.00    0.00      -0.06    0.98   -0.19
#   9    0.03   -0.06    0.00    0.03   -0.01    0.00    0.00       0.00    1.10   -0.24
#  10   -0.03   -0.10    0.00   -0.30   -0.02    0.00    0.00      -0.46   -8.10   -0.61
#  11    0.08   -0.12    0.00    0.99    0.02    0.00    0.00       0.97   16.66    0.37
#  12   -0.02   -0.10    0.00    0.33    0.05    0.00    0.00       0.25    8.72    1.44
#  13    0.01   -0.17    0.01   -0.28   -0.04    0.00    0.00      -0.47   -2.48   -0.31
#  14    0.00   -0.13    0.00    0.02   -0.02    0.00    0.00      -0.13    0.23   -0.27
#  15   -0.01   -0.24    0.01    0.07   -0.04    0.00    0.00      -0.20    0.84   -0.43
#  16   -0.01   -0.15    0.01    0.03   -0.03    0.00    0.00      -0.15    0.49   -0.47
#  17   -0.02   -0.17    0.01    0.05   -0.03    0.00    0.00      -0.16    0.81   -0.47
#  18   -0.03   -0.35    0.07    0.18   -0.04    0.00    0.00      -0.18    1.89   -0.47
#  19   -0.01   -0.64    0.21    0.39   -0.05    0.00    0.00      -0.10    2.82   -0.40
#  20   -0.01   -0.50    0.07    0.33   -0.05    0.00    0.00      -0.15    2.28   -0.35
#  21    0.00   -0.41    0.04    0.25   -0.04    0.00    0.00      -0.16    1.28   -0.18
#  22    0.00   -0.40    0.07    0.10   -0.03    0.00    0.00      -0.26    0.63   -0.16
#  23   -0.13   -0.83    0.20    0.32   -0.06    0.00    0.00      -0.50    1.60   -0.32
#  24   -0.33   -1.79    1.20    0.37   -0.11    0.00    0.00      -0.66    1.34   -0.39
#  25   -0.53   -1.52    1.03    0.65   -0.13    0.00    0.00      -0.49    2.27   -0.46
#  26    0.25   -0.73    0.11   -0.09   -0.07    0.00    0.00      -0.53   -0.43   -0.30
#  27   -2.01   -0.59    0.03    2.34    0.17    0.00    0.00      -0.07    8.51    0.62
#  28    0.61   -0.66    0.08   -0.57   -0.04    0.00    0.00      -0.59   -1.78   -0.12
#  29   -0.89   -0.75    0.07    0.52   -0.07    0.00    0.00      -1.12    1.41   -0.18
#  30   -2.84   -1.05    0.23    1.79   -0.10    0.00    0.00      -1.97    4.28   -0.25
#  31   13.65   -2.21    0.77   -7.04   -0.07    0.00    0.00       5.10  -16.99   -0.16
#  32  -16.83   -2.16    0.93   11.19   -0.16    0.00    0.00      -7.03   29.56   -0.41
#  33  -27.39   -4.86    5.07   15.71   -0.21    0.00    0.00     -11.69   32.13   -0.43
#  34    0.30   -0.69    0.07   -0.21   -0.04    0.00    0.00      -0.57   -0.63   -0.12
#  35   -2.07   -0.47    0.01    2.52    0.13    0.00    0.00       0.13   11.63    0.61
#  36    0.29   -0.53    0.04   -0.06   -0.05    0.00    0.00      -0.32   -0.33   -0.30
#  37   -0.29   -0.47    0.04    1.04   -0.07    0.00    0.00       0.25    6.25   -0.40
#  38    0.91   -0.29    0.01   -2.47   -0.01    0.00    0.00      -1.85  -21.52   -0.11
#  39   -0.40   -0.14    0.00    1.54   -0.02    0.00    0.00       0.99   29.54   -0.42
#  40   -1.32   -0.44    0.04    5.22   -0.06    0.00    0.00       3.43   33.09   -0.40
#  41    0.00   -0.43    0.22    0.47   -0.06    0.00    0.00       0.21    2.24   -0.28
#  42    0.00   -0.09    0.00    0.29   -0.02    0.00    0.00       0.18    3.54   -0.28
#  43   -0.02   -0.02    0.00    0.02   -0.01    0.00    0.00      -0.03    0.94   -0.28
#  44   -0.03   -0.05    0.00    0.00   -0.01    0.00    0.00      -0.09    0.01   -0.28
#  45   -0.03   -0.03    0.00    0.00   -0.01    0.00    0.00      -0.06    0.04   -0.28
#  46   -0.03   -0.12    0.01    0.11   -0.03    0.00    0.00      -0.06    0.90   -0.28
#  47   -0.03   -0.06    0.00   -0.03   -0.01    0.00    0.00      -0.13   -0.54   -0.28
#  48   -0.03   -0.08    0.00    0.04   -0.02    0.00    0.00      -0.09    0.56   -0.28
#  49   -0.02   -0.01    0.00   -0.01    0.00    0.00    0.00      -0.05   -0.83   -0.28
#  50   -0.02   -0.01    0.00    0.00    0.00    0.00    0.00      -0.03   -0.35   -0.28
#  51    0.00    0.00    0.00   -0.05    0.01    0.00    0.00      -0.03   -2.75    0.57
#  52    0.02   -0.07    0.00   -0.06   -0.02    0.00    0.00      -0.13   -0.85   -0.27
#  53    0.00   -0.01    0.00   -0.01    0.00    0.00    0.00      -0.03   -0.64   -0.26
#  54    0.01   -0.06    0.00   -0.04   -0.02    0.00    0.00      -0.11   -0.71   -0.28
#  55    0.01   -0.01    0.00   -0.01    0.00    0.00    0.00      -0.01   -0.69   -0.28
#  56    0.02   -0.01    0.00   -0.01    0.00    0.00    0.00      -0.01   -1.06   -0.28
#  57    0.03   -0.04    0.00   -0.06   -0.01    0.00    0.00      -0.09   -1.74   -0.28
#  58    0.02   -0.13    0.02   -0.10   -0.03    0.00    0.00      -0.23   -0.82   -0.27
#  59    0.00   -0.30    0.05    0.37   -0.06    0.00    0.00       0.06    1.44   -0.23
#  60    0.01   -0.04    0.00   -0.03   -0.01    0.00    0.00      -0.06   -0.74   -0.21
#  61    0.00   -0.25    0.15   -0.35   -0.04    0.00    0.00      -0.50   -2.30   -0.27
#  62    0.30   -0.49    0.21   -1.01   -0.09    0.00    0.00      -1.09   -3.19   -0.28
#  63    0.40   -0.32    0.09   -1.00   -0.08    0.00    0.00      -0.93   -3.44   -0.28
#  64    1.18   -0.50    0.47   -0.59   -0.08    0.00    0.00       0.48   -2.05   -0.28
#  65    0.77   -0.30    0.08   -0.61   -0.06    0.00    0.00      -0.12   -2.65   -0.28
#  66    0.59   -0.25    0.02   -0.48   -0.08    0.00    0.00      -0.20   -1.58   -0.28
#  67    0.65   -0.29    0.03   -0.61   -0.07    0.00    0.00      -0.29   -2.30   -0.27
#  68    0.98   -0.72    1.09   -0.88   -0.09    0.00    0.00       0.37   -2.65   -0.28
#  69    1.35   -0.30    0.04   -0.65   -0.09    0.00    0.00       0.36   -2.10   -0.28
#  70    1.00   -0.31    0.06   -0.88   -0.07    0.00    0.00      -0.20   -3.76   -0.28

@<TRIPOS>MOLECULE
       AVX38747_0       100
   70    73     0     0     0



@<TRIPOS>ATOM
      1 N1         12.4081   -50.7394     2.6986 N.4        1          -0.6382
      2 H1         11.9103   -51.4051     2.1265 H          1           0.4335
      3 H2         13.0542   -51.2290     3.2994 H          1           0.4371
      4 H3         12.9175   -50.1012     2.1059 H          1           0.4339
      5 C1         11.4504   -49.9867     3.5196 C.3        1          -0.0090
      6 C2         10.6779   -50.9543     4.4183 C.3        1          -0.1539
      7 C3          9.6805   -50.1703     5.2734 C.3        1          -0.1149
      8 C4          8.7008   -49.4279     4.3623 C.3        1          -0.1077
      9 C5          7.9460   -50.4374     3.4950 C.3        1          -0.1349
     10 C6          6.9810   -49.7062     2.5975 C.2        1           0.5102
     11 O1          6.4907   -48.6580     2.9606 O.2        1          -0.5103
     12 N2          6.6629   -50.2171     1.3917 N.am       1          -0.7241
     13 C7          5.7248   -49.5064     0.5192 C.3        1           0.1551
     14 C8          4.2954   -50.0268     0.7043 C.3        1          -0.0795
     15 C9          4.2008   -51.2185    -0.2153 C.ar       1          -0.1072
     16 C10         3.3398   -52.3027    -0.2152 C.ar       1          -0.1108
     17 C11         3.4577   -53.2823    -1.1819 C.ar       1          -0.1269
     18 C12         4.4373   -53.1802    -2.1521 C.ar       1          -0.1168
     19 C13         5.2968   -52.0987    -2.1536 C.ar       1          -0.0878
     20 C14         5.1797   -51.1165    -1.1848 C.ar       1          -0.0663
     21 C15         5.9691   -49.8523    -0.9534 C.3        1          -0.0659
     22 C16         7.4582   -50.1003    -1.2031 C.3        1          -0.0432
     23 C17         8.2331   -48.8415    -0.9099 C.ar       1          -0.0811
     24 C18         7.6411   -47.6108    -1.0874 C.ar       1          -0.1144
     25 C19         8.3462   -46.4490    -0.8193 C.ar       1          -0.1352
     26 C20         9.6549   -46.5114    -0.3689 C.ar       1           0.0489
     27 O2         10.3322   -45.3602    -0.1062 O.3        1          -0.3014
     28 C21        11.7579   -45.4574    -0.0265 C.3        1           0.0515
     29 C22        12.3419   -45.6861    -1.4221 C.3        1          -0.0812
     30 C23        13.8221   -45.2994    -1.4251 C.3        1          -0.1798
     31 C24        14.5648   -46.1472    -0.4248 C.2        1           0.4916
     32 O3         14.5771   -47.3605    -0.5438 O.co2      1          -0.7017
     33 O4         15.1534   -45.6197     0.5037 O.co2      1          -0.7085
     34 C25        12.0867   -46.6514     0.8775 C.3        1           0.0254
     35 O5         11.5499   -47.8217     0.2526 O.3        1          -0.2956
     36 C26        10.2675   -47.7457    -0.1855 C.ar       1           0.0596
     37 C27         9.5527   -48.9223    -0.4516 C.ar       1          -0.1022
     38 C28        10.1885   -50.2350    -0.2547 C.2        1           0.5501
     39 O6         10.1042   -50.7993     0.8275 O.co2      1          -0.6985
     40 O7         10.8014   -50.7617    -1.1732 O.co2      1          -0.6741
     41 H4         11.9881   -49.2675     4.1376 H          1           0.1339
     42 H5         10.7524   -49.4577     2.8706 H          1           0.1306
     43 H6         10.1402   -51.6734     3.8004 H          1           0.0865
     44 H7         11.3759   -51.4832     5.0673 H          1           0.0935
     45 H8          9.1300   -50.8596     5.9137 H          1           0.0760
     46 H9         10.2182   -49.4512     5.8913 H          1           0.0684
     47 H10         7.9901   -48.8694     4.9714 H          1           0.0683
     48 H11         9.2511   -48.7385     3.7221 H          1           0.0879
     49 H12         8.6567   -50.9959     2.8858 H          1           0.0952
     50 H13         7.3957   -51.1268     4.1352 H          1           0.0838
     51 H14         7.0550   -51.0555     1.1014 H          1           0.3956
     52 H15         5.7766   -48.4301     0.6841 H          1           0.0984
     53 H16         4.1327   -50.3310     1.7384 H          1           0.0811
     54 H17         3.5729   -49.2642     0.4136 H          1           0.0765
     55 H18         2.5745   -52.3829     0.5428 H          1           0.1135
     56 H19         2.7856   -54.1275    -1.1795 H          1           0.1185
     57 H20         4.5308   -53.9455    -2.9083 H          1           0.1215
     58 H21         6.0620   -52.0195    -2.9116 H          1           0.1220
     59 H22         5.6032   -49.0526    -1.5973 H          1           0.1079
     60 H23         7.8072   -50.9017    -0.5518 H          1           0.0816
     61 H24         7.6095   -50.3861    -2.2439 H          1           0.0565
     62 H25         6.6213   -47.5512    -1.4380 H          1           0.1162
     63 H26         7.8729   -45.4888    -0.9624 H          1           0.1242
     64 H27        12.1680   -44.5423     0.4008 H          1           0.0769
     65 H28        12.2405   -46.7377    -1.6906 H          1           0.0819
     66 H29        11.8046   -45.0730    -2.1457 H          1           0.0718
     67 H30        14.2382   -45.4623    -2.4193 H          1           0.0647
     68 H31        13.9235   -44.2478    -1.1567 H          1           0.0555
     69 H32        13.1672   -46.7500     0.9821 H          1           0.0709
     70 H33        11.6288   -46.5115     1.8567 H          1           0.1154
@<TRIPOS>BOND
     1    1    2 1
     2    1    3 1
     3    1    4 1
     4    1    5 1
     5    5    6 1
     6    5   41 1
     7    5   42 1
     8    6    7 1
     9    6   43 1
    10    6   44 1
    11    7    8 1
    12    7   45 1
    13    7   46 1
    14    8    9 1
    15    8   47 1
    16    8   48 1
    17    9   10 1
    18    9   49 1
    19    9   50 1
    20   10   11 2
    21   10   12 am
    22   12   13 1
    23   12   51 1
    24   13   21 1
    25   13   14 1
    26   13   52 1
    27   14   15 1
    28   14   53 1
    29   14   54 1
    30   15   20 ar
    31   15   16 ar
    32   16   17 ar
    33   16   55 1
    34   17   18 ar
    35   17   56 1
    36   18   19 ar
    37   18   57 1
    38   19   20 ar
    39   19   58 1
    40   20   21 1
    41   21   22 1
    42   21   59 1
    43   22   23 1
    44   22   60 1
    45   22   61 1
    46   23   37 ar
    47   23   24 ar
    48   24   25 ar
    49   24   62 1
    50   25   26 ar
    51   25   63 1
    52   26   36 ar
    53   26   27 1
    54   27   28 1
    55   28   29 1
    56   28   34 1
    57   28   64 1
    58   29   30 1
    59   29   65 1
    60   29   66 1
    61   30   31 1
    62   30   67 1
    63   30   68 1
    64   31   32 1
    65   31   33 2
    66   34   35 1
    67   34   69 1
    68   34   70 1
    69   35   36 1
    70   36   37 ar
    71   37   38 1
    72   38   39 1
    73   38   40 2
