AVX40911_0, 3
##########                 Name:           AVX40911_0
##########          Protonation:                  100
##########               SMILES:   c1ccc(cc1)/C=C/c2ccc3c(c2C(=O)[O-])OCO3
##########            Long Name:   5-[(E)-styryl]-1,3-benzodioxole-4-carboxylate
##########          FlexRecCode: 1
##########               Number:                  356
##########   Ligand Source File: /raid1/people/rgc/Examples/sampl4/screening/ligands/build_1//sampl4-hivint-00000
##########           GlobalRank: 73
##########                 Rank:                    1
##########               Setnum:                    2
##########             Matchnum:                19757
##########                Cloud:                    1
##########        Electrostatic:           -32.289276
##########        Van der Waals:           -20.870432
##########  Ligand Polar Desolv:            29.219219
########## Ligand Apolar Desolv:            -3.176508
##########      Internal Energy:             0.000000
##########      Receptor Energy: 0.0
########## Receptor Desolvation:             0.000000
########## Receptor Hydrophobic:             0.000000
##########         Total Energy: -27.12
##########        Ligand Charge:            -1.000000
##########            Arbitrary:    +999.9990
##########     heavy atom count:   20
##########           pose count:    1
##########        Ligand Energy:             0.000000
# num electro vdwattr vdwrepu polsolv apolsol rdesolv rhydroe totalscore fullpol fullapo
#   1  -17.62   -2.39    1.04   13.70   -0.17    0.00    0.00      -5.43   32.95   -0.41
#   2   14.56   -2.22    0.58   -8.99   -0.06    0.00    0.00       3.87  -20.80   -0.13
#   3  -23.54   -4.51    2.84   17.24   -0.21    0.00    0.00      -8.17   33.59   -0.41
#   4   -1.19   -1.32    0.21    2.46   -0.15    0.00    0.00       0.00    6.39   -0.40
#   5    0.49   -0.89    0.06    0.10   -0.10    0.00    0.00      -0.33    0.32   -0.33
#   6   -2.36   -0.60    0.02    2.67    0.13    0.00    0.00      -0.13   10.04    0.48
#   7    0.96   -0.43    0.02   -0.78    0.01    0.00    0.00      -0.24   -3.04    0.02
#   8   -1.80   -0.89    0.18    1.46    0.17    0.00    0.00      -0.88    4.66    0.53
#   9    0.21   -1.10    0.15   -0.16   -0.12    0.00    0.00      -1.01   -0.44   -0.33
#  10   -0.80   -2.06    0.48    0.23   -0.22    0.00    0.00      -2.37    0.49   -0.47
#  11   -0.68   -2.22    0.53    0.42   -0.21    0.00    0.00      -2.16    0.89   -0.44
#  12   -0.61   -1.54    0.24    0.41   -0.17    0.00    0.00      -1.66    0.97   -0.40
#  13   -0.83   -1.69    0.33    2.05   -0.19    0.00    0.00      -0.34    4.52   -0.41
#  14   -1.11   -1.72    0.54    0.06   -0.19    0.00    0.00      -2.42    0.13   -0.42
#  15   -0.38   -1.20    0.12    0.76   -0.17    0.00    0.00      -0.86    1.83   -0.41
#  16   -2.22   -2.18    0.79    1.29   -0.18    0.00    0.00      -2.49    3.18   -0.44
#  17   -2.16   -2.63    2.27    0.71   -0.16    0.00    0.00      -1.96    2.10   -0.47
#  18   -1.57   -1.61    1.60    0.21   -0.12    0.00    0.00      -1.48    0.85   -0.47
#  19   -0.46   -1.13    0.38    0.18   -0.11    0.00    0.00      -1.14    0.74   -0.47
#  20   -0.11   -1.27    0.31    0.21   -0.16    0.00    0.00      -1.02    0.61   -0.45
#  21    0.31   -0.09    0.00   -0.18   -0.02    0.00    0.00       0.02   -2.29   -0.28
#  22    0.29   -0.16    0.01   -0.35   -0.06    0.00    0.00      -0.27   -1.66   -0.28
#  23    0.66   -0.84    0.87   -0.84   -0.13    0.00    0.00      -0.29   -1.79   -0.28
#  24    0.10   -0.90    0.87   -0.85   -0.10    0.00    0.00      -0.88   -1.94   -0.22
#  25    2.55   -0.58    0.52   -0.44   -0.07    0.00    0.00       1.98   -1.07   -0.18
#  26    0.05   -0.85    1.49   -0.64   -0.07    0.00    0.00      -0.03   -2.00   -0.22
#  27    3.32   -0.70    0.40   -0.62   -0.09    0.00    0.00       2.31   -1.42   -0.21
#  28    2.18   -0.71    0.99   -0.60   -0.09    0.00    0.00       1.76   -1.79   -0.28
#  29    0.53   -0.21    0.12   -0.15   -0.04    0.00    0.00       0.25   -1.04   -0.28
#  30   -0.09   -0.27    0.19   -0.11   -0.05    0.00    0.00      -0.33   -0.65   -0.28
#  31   -0.97   -0.46    0.36   -0.25   -0.08    0.00    0.00      -1.40   -0.95   -0.28

@<TRIPOS>MOLECULE
       AVX40911_0       100
   31    33     0     0     0



@<TRIPOS>ATOM
      1 O1         14.4142   -47.4775     0.3578 O.co2      1          -0.6759
      2 C1         14.0941   -46.2968     0.3990 C.2        1           0.5308
      3 O2         14.5326   -45.5745     1.2845 O.co2      1          -0.6764
      4 C2         13.1891   -45.7458    -0.6169 C.ar       1          -0.0694
      5 C3         11.8045   -45.7524    -0.4066 C.ar       1           0.0439
      6 O3         11.0534   -46.2035     0.6359 O.3        1          -0.2976
      7 C4          9.7647   -45.5808     0.4799 C.3        1           0.2104
      8 O4          9.6664   -45.3496    -0.9378 O.3        1          -0.3153
      9 C5         10.9540   -45.2266    -1.3764 C.ar       1           0.0266
     10 C6         11.4746   -44.6968    -2.5486 C.ar       1          -0.1175
     11 C7         12.8366   -44.6829    -2.7704 C.ar       1          -0.1037
     12 C8         13.7091   -45.1991    -1.8127 C.ar       1          -0.0470
     13 C9         15.1600   -45.1788    -2.0468 C.2        1          -0.0556
     14 C10        15.6788   -45.8198    -3.1095 C.2        1          -0.1438
     15 C11        17.1329   -45.7995    -3.3440 C.ar       1          -0.0379
     16 C12        18.0091   -45.4988    -2.2972 C.ar       1          -0.1148
     17 C13        19.3691   -45.4817    -2.5246 C.ar       1          -0.1155
     18 C14        19.8670   -45.7607    -3.7854 C.ar       1          -0.1314
     19 C15        19.0059   -46.0591    -4.8267 C.ar       1          -0.1229
     20 C16        17.6437   -46.0863    -4.6132 C.ar       1          -0.1172
     21 H1          8.9726   -46.2506     0.8146 H          1           0.1263
     22 H2          9.7263   -44.6378     1.0254 H          1           0.0787
     23 H3         10.8072   -44.2918    -3.2949 H          1           0.1299
     24 H4         13.2284   -44.2675    -3.6871 H          1           0.1360
     25 H5         15.8095   -44.6493    -1.3656 H          1           0.1291
     26 H6         15.0293   -46.3493    -3.7906 H          1           0.1217
     27 H7         17.6219   -45.2802    -1.3130 H          1           0.1302
     28 H8         20.0474   -45.2496    -1.7168 H          1           0.1216
     29 H9         20.9331   -45.7451    -3.9575 H          1           0.1171
     30 H10        19.4017   -46.2754    -5.8079 H          1           0.1183
     31 H11        16.9730   -46.3241    -5.4257 H          1           0.1213
@<TRIPOS>BOND
     1    1    2 1
     2    2    3 2
     3    2    4 1
     4    4   12 ar
     5    4    5 ar
     6    5    9 ar
     7    5    6 1
     8    6    7 1
     9    7    8 1
    10    7   21 1
    11    7   22 1
    12    8    9 1
    13    9   10 ar
    14   10   11 ar
    15   10   23 1
    16   11   12 ar
    17   11   24 1
    18   12   13 1
    19   13   14 2
    20   13   25 1
    21   14   15 1
    22   14   26 1
    23   15   20 ar
    24   15   16 ar
    25   16   17 ar
    26   16   27 1
    27   17   18 ar
    28   17   28 1
    29   18   19 ar
    30   18   29 1
    31   19   20 ar
    32   19   30 1
    33   20   31 1
