AVX40811_0, 3
##########                 Name:           AVX40811_0
##########          Protonation:                  100
##########               SMILES:   CC(C)C[C@@H](Cc1ccc2c(c1C(=O)[O-])OCO2)CNC(=O)c3cccnc3
##########            Long Name:   l-2-[(pyridine-3-carbonylamino)methyl]pentyl]-1,3-benzodioxole-4-carboxylate
##########          FlexRecCode: 1
##########               Number:                   12
##########   Ligand Source File: /raid1/people/rgc/Examples/sampl4/screening/ligands/build_1//sampl4-hivint-00000
##########           GlobalRank: 36
##########                 Rank:                    1
##########               Setnum:                   18
##########             Matchnum:                19595
##########                Cloud:                    1
##########        Electrostatic:           -29.466799
##########        Van der Waals:           -24.785847
##########  Ligand Polar Desolv:            25.333153
########## Ligand Apolar Desolv:            -2.263921
##########      Internal Energy:             0.000000
##########      Receptor Energy: 0.0
########## Receptor Desolvation:             0.000000
########## Receptor Hydrophobic:             0.000000
##########         Total Energy: -31.18
##########        Ligand Charge:            -1.000000
##########            Arbitrary:    +999.9990
##########     heavy atom count:   28
##########           pose count:    1
##########        Ligand Energy:             0.000000
# num electro vdwattr vdwrepu polsolv apolsol rdesolv rhydroe totalscore fullpol fullapo
#   1   -0.17   -0.40    0.02    0.23   -0.04    0.00    0.00      -0.35    1.05   -0.18
#   2   -0.03   -0.51    0.11    0.24   -0.03    0.00    0.00      -0.22    1.26   -0.15
#   3    0.17   -0.69    0.36    0.39   -0.03    0.00    0.00       0.20    2.28   -0.17
#   4   -0.26   -0.27    0.01    0.18   -0.03    0.00    0.00      -0.36    1.22   -0.17
#   5   -0.47   -0.35    0.02    0.24   -0.02    0.00    0.00      -0.58    1.22   -0.08
#   6    0.76   -0.47    0.05   -0.57   -0.08    0.00    0.00      -0.30   -2.70   -0.37
#   7   -2.86   -0.50    0.02    2.20    0.27    0.00    0.00      -0.87   12.11    1.50
#   8    0.82   -0.32    0.01   -1.11   -0.08    0.00    0.00      -0.68   -9.41   -0.66
#   9   -0.62   -0.22    0.01    1.16    0.04    0.00    0.00       0.37   11.99    0.40
#  10    0.01   -0.40    0.03    0.37   -0.05    0.00    0.00      -0.03    2.99   -0.41
#  11    0.01   -1.11    0.43    0.07   -0.08    0.00    0.00      -0.68    0.37   -0.45
#  12    0.10   -1.40    0.67    0.14   -0.09    0.00    0.00      -0.58    0.75   -0.48
#  13   -0.07   -0.68    0.19   -0.10   -0.12    0.00    0.00      -0.78   -0.78   -0.98
#  14    0.22   -0.30    0.03    0.48    0.17    0.00    0.00       0.61    5.68    2.04
#  15   -0.04   -0.24    0.02   -0.12   -0.08    0.00    0.00      -0.47   -1.50   -0.93
#  16   -0.60   -0.54    0.03    0.35   -0.05    0.00    0.00      -0.81    1.21   -0.17
#  17   -0.38   -1.00    0.09    0.20   -0.11    0.00    0.00      -1.21    0.57   -0.31
#  18   -1.12   -1.31    0.16    0.42   -0.16    0.00    0.00      -2.02    1.02   -0.40
#  19   -0.57   -2.62    0.84    0.25   -0.23    0.00    0.00      -2.34    0.50   -0.47
#  20   -0.03   -2.50    0.78    0.05   -0.16    0.00    0.00      -1.85    0.11   -0.33
#  21   -0.18   -3.51    2.76    2.57    0.27    0.00    0.00       1.90    4.99    0.52
#  22    0.80   -1.17    0.16   -1.51    0.01    0.00    0.00      -1.72   -3.11    0.02
#  23   -3.71   -1.24    0.12    4.28    0.15    0.00    0.00      -0.40    9.51    0.34
#  24    0.97   -1.60    0.26   -0.14   -0.14    0.00    0.00      -0.65   -0.33   -0.32
#  25   -2.17   -1.43    0.26    2.36   -0.16    0.00    0.00      -1.15    5.96   -0.41
#  26   14.95   -2.32    0.75   -7.53   -0.07    0.00    0.00       5.78  -17.51   -0.16
#  27  -24.38   -4.50    2.81   12.84   -0.15    0.00    0.00     -13.38   25.22   -0.29
#  28  -17.35   -2.43    1.17   13.09   -0.22    0.00    0.00      -5.74   32.02   -0.55
#  29    0.14   -0.13    0.01   -0.07   -0.04    0.00    0.00      -0.09   -0.53   -0.28
#  30    0.06   -0.11    0.01   -0.07   -0.03    0.00    0.00      -0.14   -0.56   -0.28
#  31    0.00   -0.13    0.01   -0.06   -0.04    0.00    0.00      -0.22   -0.47   -0.28
#  32   -0.05   -0.34    0.20   -0.21   -0.04    0.00    0.00      -0.43   -0.95   -0.17
#  33   -0.04   -0.29    0.16   -0.11   -0.04    0.00    0.00      -0.32   -0.67   -0.28
#  34   -0.18   -0.34    0.31   -0.01   -0.03    0.00    0.00      -0.26   -0.09   -0.19
#  35   -0.02   -0.06    0.00   -0.06   -0.01    0.00    0.00      -0.14   -1.07   -0.28
#  36    0.09   -0.09    0.00   -0.07   -0.02    0.00    0.00      -0.09   -0.79   -0.21
#  37    0.09   -0.05    0.00   -0.05   -0.01    0.00    0.00      -0.02   -1.11   -0.28
#  38    0.55   -0.15    0.03   -0.07   -0.02    0.00    0.00       0.33   -0.46   -0.16
#  39    0.37   -0.15    0.02   -0.02   -0.05    0.00    0.00       0.17   -0.15   -0.28
#  40    0.51   -0.28    0.08   -0.33   -0.06    0.00    0.00      -0.07   -1.61   -0.28
#  41    2.15   -0.01    0.00   -0.85    0.02    0.00    0.00       1.31   -6.67    0.18
#  42    0.01   -0.32    0.15   -0.28   -0.05    0.00    0.00      -0.49   -1.49   -0.27
#  43   -0.07   -0.36    0.18   -0.06   -0.06    0.00    0.00      -0.36   -0.32   -0.28
#  44   -0.08   -0.09    0.01   -0.04   -0.02    0.00    0.00      -0.22   -0.55   -0.28
#  45   -0.01   -0.02    0.00   -0.03    0.00    0.00    0.00      -0.07   -1.91   -0.22
#  46    0.41   -0.19    0.02   -0.41   -0.06    0.00    0.00      -0.23   -1.95   -0.28
#  47    1.43   -0.22    0.02   -0.13   -0.04    0.00    0.00       1.06   -0.61   -0.21
#  48    0.88   -0.25    0.05   -0.45   -0.07    0.00    0.00       0.16   -1.78   -0.28
#  49    0.22   -1.13    1.12   -0.92   -0.14    0.00    0.00      -0.85   -1.79   -0.28
#  50   -0.05   -0.47    0.17   -0.77   -0.09    0.00    0.00      -1.21   -2.35   -0.28
#  51    0.33   -0.31    0.03   -0.63   -0.11    0.00    0.00      -0.69   -1.61   -0.28

@<TRIPOS>MOLECULE
       AVX40811_0       100
   51    53     0     0     0



@<TRIPOS>ATOM
      1 C1          7.9472   -45.8627     0.9809 C.3        1          -0.1430
      2 C2          8.9525   -46.4807     1.9546 C.3        1          -0.1166
      3 C3          8.2154   -46.9852     3.1968 C.3        1          -0.1642
      4 C4          9.6674   -47.6506     1.2755 C.3        1          -0.1163
      5 C5         10.4046   -47.1462     0.0334 C.3        1          -0.0838
      6 C6         11.1194   -48.3161    -0.6458 C.3        1           0.1304
      7 N1         11.7040   -49.1897     0.3745 N.am       1          -0.7126
      8 C7         11.3250   -50.4808     0.4538 C.2        1           0.5547
      9 O1         10.4982   -50.9200    -0.3213 O.2        1          -0.5392
     10 C8         11.9151   -51.3625     1.4833 C.ar       1          -0.1816
     11 C9         12.3961   -50.8302     2.6858 C.ar       1          -0.0186
     12 C10        12.9387   -51.6982     3.6166 C.ar       1          -0.1807
     13 C11        12.9880   -53.0513     3.3324 C.ar       1           0.1162
     14 N2         12.5270   -53.5247     2.1906 N.ar       1          -0.4850
     15 C12        11.9969   -52.7398     1.2756 C.ar       1           0.1329
     16 C13        11.4321   -46.0896     0.4441 C.3        1          -0.0615
     17 C14        12.1582   -45.5928    -0.7794 C.ar       1          -0.0318
     18 C15        11.4565   -44.9888    -1.7989 C.ar       1          -0.1338
     19 C16        12.1158   -44.5288    -2.9277 C.ar       1          -0.1030
     20 C17        13.4869   -44.6709    -3.0427 C.ar       1          -0.0045
     21 O2         14.3670   -44.3168    -4.0214 O.3        1          -0.3196
     22 C18        15.5501   -45.1015    -3.8080 C.3        1           0.2050
     23 O3         15.5209   -45.2891    -2.3851 O.3        1          -0.2780
     24 C19        14.2118   -45.2793    -2.0201 C.ar       1           0.0757
     25 C20        13.5469   -45.7399    -0.8772 C.ar       1          -0.1226
     26 C21        14.3025   -46.3792     0.2120 C.2        1           0.5210
     27 O4         14.7490   -45.7008     1.1269 O.co2      1          -0.6708
     28 O5         14.4839   -47.5890     0.2025 O.co2      1          -0.6736
     29 H1          8.4723   -45.5034     0.0959 H          1           0.0495
     30 H2          7.2150   -46.6153     0.6883 H          1           0.0504
     31 H3          7.4380   -45.0293     1.4647 H          1           0.0530
     32 H4          9.6848   -45.7280     2.2472 H          1           0.0794
     33 H5          8.9317   -47.4254     3.8904 H          1           0.0606
     34 H6          7.7062   -46.1517     3.6806 H          1           0.0644
     35 H7          7.4833   -47.7379     2.9042 H          1           0.0523
     36 H8         10.3835   -48.0909     1.9693 H          1           0.0684
     37 H9          8.9351   -48.4033     0.9828 H          1           0.0581
     38 H10         9.6883   -46.7059    -0.6604 H          1           0.1022
     39 H11        10.4040   -48.8821    -1.2424 H          1           0.0776
     40 H12        11.9092   -47.9333    -1.2923 H          1           0.0658
     41 H13        12.3639   -48.8392     0.9931 H          1           0.4028
     42 H14        12.3453   -49.7693     2.8813 H          1           0.1477
     43 H15        13.3198   -51.3235     4.5550 H          1           0.1419
     44 H16        13.4112   -53.7313     4.0571 H          1           0.1603
     45 H17        11.6260   -53.1653     0.3549 H          1           0.1571
     46 H18        10.9228   -45.2562     0.9278 H          1           0.0511
     47 H19        12.1483   -46.5298     1.1379 H          1           0.1129
     48 H20        10.3857   -44.8732    -1.7183 H          1           0.1285
     49 H21        11.5561   -44.0572    -3.7219 H          1           0.1236
     50 H22        15.4841   -46.0566    -4.3291 H          1           0.1229
     51 H23        16.4420   -44.5532    -4.1112 H          1           0.0747
@<TRIPOS>BOND
     1    1    2 1
     2    1   29 1
     3    1   30 1
     4    1   31 1
     5    2    3 1
     6    2    4 1
     7    2   32 1
     8    3   33 1
     9    3   34 1
    10    3   35 1
    11    4    5 1
    12    4   36 1
    13    4   37 1
    14    5    6 1
    15    5   16 1
    16    5   38 1
    17    6    7 1
    18    6   39 1
    19    6   40 1
    20    7    8 am
    21    7   41 1
    22    8    9 2
    23    8   10 1
    24   10   15 ar
    25   10   11 ar
    26   11   12 ar
    27   11   42 1
    28   12   13 ar
    29   12   43 1
    30   13   14 ar
    31   13   44 1
    32   14   15 ar
    33   15   45 1
    34   16   17 1
    35   16   46 1
    36   16   47 1
    37   17   25 ar
    38   17   18 ar
    39   18   19 ar
    40   18   48 1
    41   19   20 ar
    42   19   49 1
    43   20   24 ar
    44   20   21 1
    45   21   22 1
    46   22   23 1
    47   22   50 1
    48   22   51 1
    49   23   24 1
    50   24   25 ar
    51   25   26 1
    52   26   27 1
    53   26   28 2
