AVX40812_0, 3
##########                 Name:           AVX40812_0
##########          Protonation:                  100
##########               SMILES:   CC(C)C[C@@H](Cc1ccc2c(c1C(=O)[O-])OCO2)CNC(=O)Cc3c[nH]c4c3cccc4
##########            Long Name:   ol-3-yl)acetyl]amino]methyl]-4-methyl-pentyl]-1,3-benzodioxole-4-carboxylate
##########          FlexRecCode: 1
##########               Number:                   46
##########   Ligand Source File: /raid1/people/rgc/Examples/sampl4/screening/ligands/build_1//sampl4-hivint-00000
##########           GlobalRank: 33
##########                 Rank:                    1
##########               Setnum:                  149
##########             Matchnum:                  306
##########                Cloud:                    1
##########        Electrostatic:           -30.035313
##########        Van der Waals:           -26.340588
##########  Ligand Polar Desolv:            27.058380
########## Ligand Apolar Desolv:            -2.527211
##########      Internal Energy:             0.000000
##########      Receptor Energy: 0.0
########## Receptor Desolvation:             0.000000
########## Receptor Hydrophobic:             0.000000
##########         Total Energy: -31.84
##########        Ligand Charge:            -1.000000
##########            Arbitrary:    +999.9990
##########     heavy atom count:   32
##########           pose count:    1
##########        Ligand Energy:             0.000000
# num electro vdwattr vdwrepu polsolv apolsol rdesolv rhydroe totalscore fullpol fullapo
#   1   -0.30   -0.43    0.03    0.22   -0.04    0.00    0.00      -0.51    0.99   -0.18
#   2   -0.10   -0.37    0.03    0.21   -0.03    0.00    0.00      -0.26    1.18   -0.15
#   3    0.10   -0.37    0.06    0.30   -0.02    0.00    0.00       0.07    2.06   -0.16
#   4   -0.25   -0.26    0.01    0.18   -0.02    0.00    0.00      -0.35    1.24   -0.17
#   5   -0.47   -0.34    0.01    0.22   -0.02    0.00    0.00      -0.59    1.15   -0.08
#   6    0.76   -0.41    0.03   -0.57   -0.07    0.00    0.00      -0.27   -2.85   -0.37
#   7   -2.36   -0.64    0.05    2.20    0.29    0.00    0.00      -0.46   11.44    1.51
#   8    0.38   -0.40    0.03   -1.05   -0.09    0.00    0.00      -1.14   -8.02   -0.66
#   9   -0.44   -0.20    0.00    1.08    0.03    0.00    0.00       0.47   12.71    0.38
#  10    0.03   -0.41    0.07    0.08   -0.04    0.00    0.00      -0.27    0.56   -0.27
#  11    0.04   -0.29    0.01    0.26   -0.03    0.00    0.00      -0.01    2.62   -0.33
#  12   -0.01   -0.12    0.00   -0.02   -0.04    0.00    0.00      -0.19   -0.65   -0.99
#  13    0.15   -0.10    0.00    0.16    0.04    0.00    0.00       0.25    5.30    1.17
#  14   -0.03   -0.20    0.00   -0.04   -0.05    0.00    0.00      -0.32   -0.57   -0.78
#  15    0.06   -0.27    0.01    0.11   -0.04    0.00    0.00      -0.14    1.23   -0.48
#  16    0.05   -0.50    0.06    0.12   -0.06    0.00    0.00      -0.34    0.88   -0.47
#  17    0.06   -0.66    0.05    0.26   -0.09    0.00    0.00      -0.37    1.41   -0.47
#  18    0.02   -0.89    0.17    0.26   -0.09    0.00    0.00      -0.54    1.35   -0.47
#  19    0.02   -0.40    0.02    0.23   -0.05    0.00    0.00      -0.17    1.92   -0.44
#  20   -0.62   -0.57    0.04    0.37   -0.05    0.00    0.00      -0.83    1.27   -0.17
#  21   -0.43   -1.04    0.10    0.21   -0.11    0.00    0.00      -1.28    0.58   -0.31
#  22   -1.30   -1.21    0.12    0.43   -0.16    0.00    0.00      -2.11    1.10   -0.40
#  23   -0.75   -2.03    0.41    0.24   -0.22    0.00    0.00      -2.35    0.52   -0.47
#  24   -0.05   -1.73    0.26    0.04   -0.15    0.00    0.00      -1.63    0.09   -0.33
#  25   -2.15   -1.50    0.19    2.45    0.26    0.00    0.00      -0.75    4.97    0.52
#  26    3.06   -1.28    0.23   -1.49    0.01    0.00    0.00       0.53   -3.07    0.02
#  27   -6.94   -2.24    0.93    4.28    0.15    0.00    0.00      -3.81    9.40    0.34
#  28    1.57   -2.04    0.89   -0.16   -0.14    0.00    0.00       0.12   -0.36   -0.32
#  29   -2.90   -1.86    0.57    2.44   -0.17    0.00    0.00      -1.92    5.96   -0.41
#  30   16.61   -3.68    1.65   -8.29   -0.08    0.00    0.00       6.22  -17.44   -0.16
#  31  -23.25   -6.58    5.00   14.05   -0.16    0.00    0.00     -10.95   25.07   -0.29
#  32  -19.39   -4.63    3.61   14.55   -0.26    0.00    0.00      -6.12   31.70   -0.56
#  33    0.18   -0.16    0.02   -0.09   -0.04    0.00    0.00      -0.09   -0.54   -0.28
#  34    0.09   -0.13    0.01   -0.07   -0.04    0.00    0.00      -0.14   -0.50   -0.28
#  35    0.07   -0.16    0.02   -0.06   -0.04    0.00    0.00      -0.17   -0.39   -0.28
#  36    0.01   -0.22    0.06   -0.17   -0.03    0.00    0.00      -0.34   -0.98   -0.17
#  37   -0.04   -0.19    0.06   -0.06   -0.03    0.00    0.00      -0.26   -0.51   -0.28
#  38   -0.09   -0.12    0.02   -0.01   -0.02    0.00    0.00      -0.22   -0.07   -0.19
#  39    0.00   -0.04    0.00   -0.04   -0.01    0.00    0.00      -0.09   -1.04   -0.28
#  40    0.06   -0.10    0.00   -0.07   -0.02    0.00    0.00      -0.13   -0.74   -0.21
#  41    0.09   -0.04    0.00   -0.04   -0.01    0.00    0.00      -0.01   -1.07   -0.28
#  42    0.59   -0.14    0.02   -0.07   -0.02    0.00    0.00       0.37   -0.53   -0.16
#  43    0.31   -0.12    0.01    0.02   -0.03    0.00    0.00       0.18    0.14   -0.28
#  44    0.49   -0.20    0.03   -0.21   -0.04    0.00    0.00       0.07   -1.38   -0.28
#  45    1.48   -0.02    0.00   -1.07    0.06    0.00    0.00       0.44   -6.00    0.32
#  46   -0.05   -0.08    0.01   -0.10   -0.02    0.00    0.00      -0.24   -1.19   -0.28
#  47   -0.05   -0.43    0.30   -0.25   -0.06    0.00    0.00      -0.48   -1.23   -0.28
#  48   -0.02   -0.01    0.00   -0.02    0.00    0.00    0.00      -0.07   -1.57   -0.28
#  49   -0.10    0.00    0.00   -0.03    0.01    0.00    0.00      -0.13   -2.46    0.59
#  50   -0.05   -0.04    0.00   -0.03   -0.01    0.00    0.00      -0.12   -0.94   -0.28
#  51   -0.07   -0.12    0.02   -0.07   -0.02    0.00    0.00      -0.26   -0.80   -0.28
#  52   -0.04   -0.13    0.01   -0.12   -0.03    0.00    0.00      -0.33   -1.03   -0.28
#  53   -0.04   -0.43    0.26   -0.28   -0.06    0.00    0.00      -0.55   -1.31   -0.28
#  54    0.39   -0.17    0.01   -0.39   -0.06    0.00    0.00      -0.21   -1.95   -0.28
#  55    1.38   -0.29    0.05   -0.13   -0.05    0.00    0.00       0.96   -0.56   -0.21
#  56    1.00   -0.25    0.04   -0.48   -0.07    0.00    0.00       0.24   -1.89   -0.28
#  57    0.23   -0.90    0.86   -0.83   -0.13    0.00    0.00      -0.77   -1.84   -0.28
#  58    1.87   -0.31    0.06   -0.77   -0.09    0.00    0.00       0.75   -2.33   -0.28
#  59    1.13   -0.70    0.26   -0.81   -0.14    0.00    0.00      -0.26   -1.60   -0.28

@<TRIPOS>MOLECULE
       AVX40812_0       100
   59    62     0     0     0



@<TRIPOS>ATOM
      1 C1          8.0121   -46.2440     0.3906 C.3        1          -0.1431
      2 C2          8.8119   -46.6566     1.6279 C.3        1          -0.1157
      3 C3          7.8497   -47.0805     2.7393 C.3        1          -0.1599
      4 C4          9.7304   -47.8282     1.2741 C.3        1          -0.1154
      5 C5         10.6925   -47.4042     0.1627 C.3        1          -0.0821
      6 C6         11.6109   -48.5755    -0.1912 C.3        1           0.1328
      7 N1         12.0070   -49.2732     1.0345 N.am       1          -0.7247
      8 C7         11.7000   -50.5754     1.1979 C.2        1           0.5054
      9 O1         11.0959   -51.1695     0.3302 O.2        1          -0.5358
     10 C8         12.1072   -51.2930     2.4591 C.3        1          -0.0687
     11 C9         11.0114   -51.1658     3.4856 C.2        1          -0.1475
     12 C10         9.6967   -51.3373     3.2756 C.2        1           0.0632
     13 N2          9.0084   -51.1406     4.4418 N.pl3      1          -0.5951
     14 C11         9.8859   -50.8298     5.4564 C.ar       1           0.0946
     15 C12         9.7242   -50.5424     6.8079 C.ar       1          -0.1322
     16 C13        10.8272   -50.2642     7.5849 C.ar       1          -0.1030
     17 C14        12.1011   -50.2673     7.0330 C.ar       1          -0.1494
     18 C15        12.2827   -50.5470     5.7081 C.ar       1          -0.0663
     19 C16        11.1792   -50.8376     4.9033 C.ar       1          -0.0878
     20 C17        11.5364   -46.2214     0.6424 C.3        1          -0.0622
     21 C18        12.4842   -45.8038    -0.4523 C.ar       1          -0.0308
     22 C19        11.9910   -45.3831    -1.6673 C.ar       1          -0.1340
     23 C20        12.8554   -44.9970    -2.6788 C.ar       1          -0.1030
     24 C21        14.2253   -45.0296    -2.4806 C.ar       1          -0.0052
     25 O2         15.2664   -44.7064    -3.3028 O.3        1          -0.3198
     26 C22        16.4047   -44.5473    -2.4353 C.3        1           0.2050
     27 O3         16.0995   -45.3951    -1.3123 O.3        1          -0.2782
     28 C23        14.7403   -45.4525    -1.2577 C.ar       1           0.0754
     29 C24        13.8659   -45.8379    -0.2327 C.ar       1          -0.1228
     30 C25        14.3980   -46.2814     1.0659 C.2        1           0.5212
     31 O4         14.5876   -45.4675     1.9593 O.co2      1          -0.6699
     32 O5         14.6507   -47.4638     1.2517 O.co2      1          -0.6747
     33 H1          8.6977   -45.9421    -0.4011 H          1           0.0489
     34 H2          7.4108   -47.0865     0.0490 H          1           0.0501
     35 H3          7.3578   -45.4093     0.6426 H          1           0.0512
     36 H4          9.4132   -45.8141     1.9695 H          1           0.0839
     37 H5          8.4197   -47.3745     3.6208 H          1           0.0565
     38 H6          7.1955   -46.2459     2.9914 H          1           0.0647
     39 H7          7.2486   -47.9232     2.3976 H          1           0.0503
     40 H8         10.3002   -48.1221     2.1555 H          1           0.0658
     41 H9          9.1293   -48.6708     0.9323 H          1           0.0564
     42 H10        10.1228   -47.1101    -0.7187 H          1           0.1010
     43 H11        11.0821   -49.2663    -0.8478 H          1           0.0714
     44 H12        12.4996   -48.2001    -0.6988 H          1           0.0602
     45 H13        12.4902   -48.7980     1.7285 H          1           0.4020
     46 H14        12.2779   -52.3467     2.2385 H          1           0.0971
     47 H15        13.0237   -50.8504     2.8492 H          1           0.0994
     48 H16         9.2484   -51.5922     2.3267 H          1           0.1696
     49 H17         8.0458   -51.2099     4.5393 H          1           0.4146
     50 H18         8.7372   -50.5370     7.2465 H          1           0.1166
     51 H19        10.6995   -50.0409     8.6338 H          1           0.1217
     52 H20        12.9554   -50.0468     7.6561 H          1           0.1196
     53 H21        13.2767   -50.5478     5.2858 H          1           0.1182
     54 H22        10.8822   -45.3868     0.8945 H          1           0.0499
     55 H23        12.1063   -46.5155     1.5239 H          1           0.1118
     56 H24        10.9241   -45.3543    -1.8326 H          1           0.1282
     57 H25        12.4581   -44.6689    -3.6280 H          1           0.1234
     58 H26        17.3148   -44.8827    -2.9324 H          1           0.1226
     59 H27        16.5013   -43.5094    -2.1167 H          1           0.0744
@<TRIPOS>BOND
     1    1    2 1
     2    1   33 1
     3    1   34 1
     4    1   35 1
     5    2    3 1
     6    2    4 1
     7    2   36 1
     8    3   37 1
     9    3   38 1
    10    3   39 1
    11    4    5 1
    12    4   40 1
    13    4   41 1
    14    5    6 1
    15    5   20 1
    16    5   42 1
    17    6    7 1
    18    6   43 1
    19    6   44 1
    20    7    8 am
    21    7   45 1
    22    8    9 2
    23    8   10 1
    24   10   11 1
    25   10   46 1
    26   10   47 1
    27   11   19 1
    28   11   12 2
    29   12   13 1
    30   12   48 1
    31   13   14 1
    32   13   49 1
    33   14   19 ar
    34   14   15 ar
    35   15   16 ar
    36   15   50 1
    37   16   17 ar
    38   16   51 1
    39   17   18 ar
    40   17   52 1
    41   18   19 ar
    42   18   53 1
    43   20   21 1
    44   20   54 1
    45   20   55 1
    46   21   29 ar
    47   21   22 ar
    48   22   23 ar
    49   22   56 1
    50   23   24 ar
    51   23   57 1
    52   24   28 ar
    53   24   25 1
    54   25   26 1
    55   26   27 1
    56   26   58 1
    57   26   59 1
    58   27   28 1
    59   28   29 ar
    60   29   30 1
    61   30   31 1
    62   30   32 2
