GL5243100_0, 3
##########                 Name:          GL5243100_0
##########          Protonation:                  100
##########               SMILES:   CC(C)C[C@@H](Cc1ccc2c(c1C(=O)[O-])OCO2)CNC(=O)Cc3cc[nH]c3
##########            Long Name:   2-(1H-pyrrol-3-yl)acetyl]amino]methyl]pentyl]-1,3-benzodioxole-4-carboxylate
##########          FlexRecCode: 1
##########               Number:                  515
##########   Ligand Source File: /raid1/people/rgc/Examples/sampl4/screening/ligands/build_1//sampl4-hivint-00000
##########           GlobalRank: 43
##########                 Rank:                    1
##########               Setnum:                   71
##########             Matchnum:                19125
##########                Cloud:                    1
##########        Electrostatic:           -32.150917
##########        Van der Waals:           -22.590956
##########  Ligand Polar Desolv:            26.475443
########## Ligand Apolar Desolv:            -2.087167
##########      Internal Energy:             0.000000
##########      Receptor Energy: 0.0
########## Receptor Desolvation:             0.000000
########## Receptor Hydrophobic:             0.000000
##########         Total Energy: -30.35
##########        Ligand Charge:            -1.000000
##########            Arbitrary:    +999.9990
##########     heavy atom count:   28
##########           pose count:    1
##########        Ligand Energy:             0.000000
# num electro vdwattr vdwrepu polsolv apolsol rdesolv rhydroe totalscore fullpol fullapo
#   1   -0.18   -0.33    0.01    0.19   -0.03    0.00    0.00      -0.34    0.99   -0.18
#   2   -0.05   -0.45    0.08    0.20   -0.03    0.00    0.00      -0.24    1.19   -0.15
#   3    0.09   -0.44    0.10    0.31   -0.02    0.00    0.00       0.04    2.10   -0.16
#   4   -0.22   -0.26    0.01    0.17   -0.02    0.00    0.00      -0.32    1.24   -0.17
#   5   -0.45   -0.32    0.01    0.22   -0.02    0.00    0.00      -0.56    1.17   -0.08
#   6    0.76   -0.43    0.04   -0.58   -0.07    0.00    0.00      -0.29   -2.86   -0.37
#   7   -2.69   -0.63    0.04    2.39    0.31    0.00    0.00      -0.58   11.73    1.51
#   8    0.43   -0.37    0.02   -1.02   -0.08    0.00    0.00      -1.02   -8.21   -0.66
#   9   -0.40   -0.16    0.00    0.77    0.02    0.00    0.00       0.23   12.80    0.38
#  10    0.03   -0.40    0.06    0.09   -0.04    0.00    0.00      -0.25    0.64   -0.27
#  11    0.04   -0.30    0.02    0.25   -0.03    0.00    0.00      -0.03    2.49   -0.33
#  12    0.00   -0.10    0.00    0.01   -0.03    0.00    0.00      -0.12    0.40   -1.01
#  13    0.14   -0.09    0.00    0.11    0.03    0.00    0.00       0.20    4.42    1.19
#  14    0.01   -0.23    0.01    0.00   -0.08    0.00    0.00      -0.29    0.05   -1.01
#  15    0.05   -0.52    0.05    0.41   -0.07    0.00    0.00      -0.09    2.78   -0.51
#  16   -0.62   -0.59    0.04    0.37   -0.05    0.00    0.00      -0.85    1.27   -0.17
#  17   -0.41   -1.02    0.10    0.20   -0.11    0.00    0.00      -1.24    0.58   -0.31
#  18   -1.26   -1.12    0.10    0.41   -0.15    0.00    0.00      -2.02    1.08   -0.40
#  19   -0.75   -1.92    0.33    0.24   -0.22    0.00    0.00      -2.32    0.51   -0.47
#  20   -0.05   -1.90    0.32    0.04   -0.15    0.00    0.00      -1.74    0.09   -0.33
#  21   -1.50   -2.38    0.98    2.49    0.26    0.00    0.00      -0.14    4.97    0.52
#  22    1.84   -1.01    0.10   -1.52    0.01    0.00    0.00      -0.58   -3.09    0.02
#  23   -5.25   -1.64    0.39    4.34    0.16    0.00    0.00      -2.00    9.46    0.34
#  24    1.33   -1.90    0.76   -0.15   -0.14    0.00    0.00      -0.10   -0.34   -0.32
#  25   -2.69   -1.73    0.51    2.43   -0.17    0.00    0.00      -1.65    6.00   -0.41
#  26   16.86   -3.29    1.45   -8.14   -0.07    0.00    0.00       6.80  -17.53   -0.16
#  27  -24.37   -6.14    4.60   13.88   -0.16    0.00    0.00     -12.20   25.29   -0.29
#  28  -20.84   -4.26    4.45   14.13   -0.25    0.00    0.00      -6.77   31.89   -0.56
#  29    0.14   -0.11    0.00   -0.06   -0.03    0.00    0.00      -0.06   -0.54   -0.28
#  30    0.06   -0.08    0.00   -0.04   -0.02    0.00    0.00      -0.07   -0.51   -0.28
#  31    0.01   -0.11    0.01   -0.04   -0.03    0.00    0.00      -0.17   -0.40   -0.28
#  32   -0.05   -0.35    0.25   -0.19   -0.03    0.00    0.00      -0.38   -0.98   -0.17
#  33   -0.03   -0.17    0.04   -0.01   -0.02    0.00    0.00      -0.20   -0.05   -0.19
#  34   -0.06   -0.18    0.06   -0.13   -0.03    0.00    0.00      -0.35   -1.06   -0.28
#  35   -0.01   -0.04    0.00   -0.02   -0.01    0.00    0.00      -0.08   -0.53   -0.28
#  36    0.03   -0.10    0.00   -0.08   -0.02    0.00    0.00      -0.16   -0.76   -0.21
#  37    0.07   -0.04    0.00   -0.04   -0.01    0.00    0.00      -0.01   -1.09   -0.28
#  38    0.54   -0.12    0.01   -0.06   -0.02    0.00    0.00       0.36   -0.49   -0.16
#  39    0.32   -0.13    0.01    0.02   -0.04    0.00    0.00       0.18    0.16   -0.28
#  40    0.47   -0.24    0.05   -0.24   -0.05    0.00    0.00       0.01   -1.43   -0.28
#  41    2.29   -0.02    0.00   -1.23    0.06    0.00    0.00       1.10   -6.17    0.32
#  42   -0.05   -0.07    0.01   -0.09   -0.02    0.00    0.00      -0.22   -1.25   -0.28
#  43   -0.05   -0.43    0.29   -0.26   -0.06    0.00    0.00      -0.51   -1.25   -0.28
#  44   -0.03   -0.01    0.00   -0.02    0.00    0.00    0.00      -0.06   -1.77   -0.28
#  45   -0.10    0.00    0.00   -0.02    0.01    0.00    0.00      -0.11   -2.03    0.60
#  46   -0.06   -0.05    0.00   -0.04   -0.01    0.00    0.00      -0.16   -1.00   -0.28
#  47   -0.02   -0.28    0.07   -0.27   -0.05    0.00    0.00      -0.55   -1.42   -0.28
#  48    0.38   -0.20    0.02   -0.43   -0.06    0.00    0.00      -0.29   -1.98   -0.28
#  49    1.45   -0.30    0.06   -0.14   -0.05    0.00    0.00       1.02   -0.55   -0.21
#  50    0.95   -0.21    0.03   -0.40   -0.06    0.00    0.00       0.31   -1.90   -0.28
#  51    0.42   -0.70    0.32   -0.85   -0.13    0.00    0.00      -0.94   -1.84   -0.28
#  52    0.53   -0.28    0.05   -0.58   -0.07    0.00    0.00      -0.35   -2.35   -0.28
#  53    0.82   -0.36    0.06   -0.60   -0.10    0.00    0.00      -0.19   -1.61   -0.28

@<TRIPOS>MOLECULE
      GL5243100_0       100
   53    55     0     0     0



@<TRIPOS>ATOM
      1 C1          8.0611   -46.4748     1.0502 C.3        1          -0.1430
      2 C2          9.0487   -46.9944     2.0968 C.3        1          -0.1161
      3 C3          8.2762   -47.5796     3.2808 C.3        1          -0.1597
      4 C4          9.9273   -48.0811     1.4740 C.3        1          -0.1152
      5 C5         10.6999   -47.4958     0.2901 C.3        1          -0.0822
      6 C6         11.5785   -48.5826    -0.3329 C.3        1           0.1327
      7 N1         12.1713   -49.3995     0.7289 N.am       1          -0.7259
      8 C7         11.5257   -50.4945     1.1767 C.2        1           0.5063
      9 O1         10.4539   -50.8036     0.7007 O.2        1          -0.5380
     10 C8         12.1355   -51.3348     2.2689 C.3        1          -0.0697
     11 C9         11.2065   -51.3685     3.4550 C.2        1          -0.1451
     12 C10        10.2270   -52.2686     3.6764 C.2        1          -0.0011
     13 N2          9.6176   -51.9541     4.8549 N.pl3      1          -0.5613
     14 C11        10.2195   -50.8479     5.3774 C.2        1          -0.0229
     15 C12        11.2056   -50.4690     4.5393 C.2        1          -0.1838
     16 C13        11.5814   -46.3436     0.7759 C.3        1          -0.0623
     17 C14        12.3423   -45.7671    -0.3902 C.ar       1          -0.0306
     18 C15        11.6608   -45.2301    -1.4596 C.ar       1          -0.1341
     19 C16        12.3521   -44.6978    -2.5363 C.ar       1          -0.1030
     20 C17        13.7354   -44.6994    -2.5483 C.ar       1          -0.0054
     21 O2         14.6454   -44.2510    -3.4586 O.3        1          -0.3198
     22 C18        15.8828   -44.9134    -3.1569 C.3        1           0.2050
     23 O3         15.7670   -45.1130    -1.7401 O.3        1          -0.2782
     24 C19        14.4401   -45.2384    -1.4740 C.ar       1           0.0753
     25 C20        13.7422   -45.7721    -0.3838 C.ar       1          -0.1227
     26 C21        14.4756   -46.3391     0.7593 C.2        1           0.5211
     27 O4         14.7815   -45.6254     1.7046 O.co2      1          -0.6696
     28 O5         14.7792   -47.5243     0.7641 O.co2      1          -0.6749
     29 H1          8.6114   -46.0579     0.2067 H          1           0.0489
     30 H2          7.4331   -47.2958     0.7040 H          1           0.0499
     31 H3          7.4352   -45.7007     1.4939 H          1           0.0510
     32 H4          9.6767   -46.1734     2.4428 H          1           0.0845
     33 H5          8.9798   -47.9497     4.0263 H          1           0.0648
     34 H6          7.6503   -46.8054     3.7246 H          1           0.0504
     35 H7          7.6481   -48.4005     2.9347 H          1           0.0562
     36 H8         10.6309   -48.4513     2.2197 H          1           0.0655
     37 H9          9.2992   -48.9020     1.1279 H          1           0.0562
     38 H10         9.9963   -47.1257    -0.4557 H          1           0.1009
     39 H11        10.9707   -49.2141    -0.9808 H          1           0.0709
     40 H12        12.3712   -48.1173    -0.9187 H          1           0.0598
     41 H13        13.0285   -49.1523     1.1098 H          1           0.4018
     42 H14        12.2932   -52.3490     1.9019 H          1           0.0947
     43 H15        13.0912   -50.9042     2.5680 H          1           0.0943
     44 H16         9.9695   -53.0956     3.0314 H          1           0.1607
     45 H17         8.8779   -52.4374     5.2550 H          1           0.4123
     46 H18         9.9550   -50.3619     6.3048 H          1           0.1597
     47 H19        11.8710   -49.6288     4.6736 H          1           0.1313
     48 H20        10.9555   -45.5694     1.2197 H          1           0.0498
     49 H21        12.2850   -46.7139     1.5216 H          1           0.1118
     50 H22        10.5808   -45.2243    -1.4594 H          1           0.1283
     51 H23        11.8082   -44.2798    -3.3704 H          1           0.1234
     52 H24        15.9532   -45.8665    -3.6809 H          1           0.1226
     53 H25        16.7345   -44.2754    -3.3928 H          1           0.0744
@<TRIPOS>BOND
     1    1    2 1
     2    1   29 1
     3    1   30 1
     4    1   31 1
     5    2    3 1
     6    2    4 1
     7    2   32 1
     8    3   33 1
     9    3   34 1
    10    3   35 1
    11    4    5 1
    12    4   36 1
    13    4   37 1
    14    5    6 1
    15    5   16 1
    16    5   38 1
    17    6    7 1
    18    6   39 1
    19    6   40 1
    20    7    8 am
    21    7   41 1
    22    8    9 2
    23    8   10 1
    24   10   11 1
    25   10   42 1
    26   10   43 1
    27   11   15 1
    28   11   12 2
    29   12   13 1
    30   12   44 1
    31   13   14 1
    32   13   45 1
    33   14   15 2
    34   14   46 1
    35   15   47 1
    36   16   17 1
    37   16   48 1
    38   16   49 1
    39   17   25 ar
    40   17   18 ar
    41   18   19 ar
    42   18   50 1
    43   19   20 ar
    44   19   51 1
    45   20   24 ar
    46   20   21 1
    47   21   22 1
    48   22   23 1
    49   22   52 1
    50   22   53 1
    51   23   24 1
    52   24   25 ar
    53   25   26 1
    54   26   27 1
    55   26   28 2
