GL5243102_0, 3
##########                 Name:          GL5243102_0
##########          Protonation:                   86
##########               SMILES:   CC(C)C[C@@H](Cc1ccc2c(c1C(=O)[O-])OCO2)CNC(=O)Cc3c[nH]cn3
##########            Long Name:   ol-4-yl)acetyl]amino]methyl]-4-methyl-pentyl]-1,3-benzodioxole-4-carboxylate
##########          FlexRecCode: 1
##########               Number:                  666
##########   Ligand Source File: /raid1/people/rgc/Examples/sampl4/screening/ligands/build_1//sampl4-hivint-00000
##########           GlobalRank: 54
##########                 Rank:                    1
##########               Setnum:                   26
##########             Matchnum:                   46
##########                Cloud:                    1
##########        Electrostatic:           -26.782848
##########        Van der Waals:           -26.243567
##########  Ligand Polar Desolv:            25.908142
########## Ligand Apolar Desolv:            -2.092940
##########      Internal Energy:             0.000000
##########      Receptor Energy: 0.0
########## Receptor Desolvation:             0.000000
########## Receptor Hydrophobic:             0.000000
##########         Total Energy: -29.21
##########        Ligand Charge:            -1.000000
##########            Arbitrary:    +999.9990
##########     heavy atom count:   28
##########           pose count:    1
##########        Ligand Energy:             0.000000
# num electro vdwattr vdwrepu polsolv apolsol rdesolv rhydroe totalscore fullpol fullapo
#   1   -0.31   -0.65    0.12    0.65   -0.05    0.00    0.00      -0.23    2.45   -0.17
#   2   -0.10   -0.32    0.01    0.25   -0.03    0.00    0.00      -0.18    1.42   -0.15
#   3    0.04   -0.26    0.01    0.21   -0.03    0.00    0.00      -0.03    1.46   -0.18
#   4   -0.22   -0.23    0.01    0.14   -0.02    0.00    0.00      -0.33    1.03   -0.17
#   5   -0.43   -0.37    0.03    0.19   -0.02    0.00    0.00      -0.60    0.99   -0.09
#   6    0.65   -0.43    0.04   -0.44   -0.07    0.00    0.00      -0.26   -2.23   -0.37
#   7   -3.22   -0.57    0.03    1.81    0.42    0.00    0.00      -1.53    9.40    2.18
#   8    0.49   -0.41    0.02   -0.96   -0.09    0.00    0.00      -0.95   -7.16   -0.66
#   9   -0.35   -0.16    0.00    0.71    0.02    0.00    0.00       0.22   11.85    0.37
#  10    0.01   -0.63    0.18    0.07   -0.05    0.00    0.00      -0.41    0.40   -0.27
#  11    0.00   -1.43    0.56    0.20   -0.14    0.00    0.00      -0.82    0.88   -0.64
#  12   -0.01   -2.62    1.82    0.01   -0.28    0.00    0.00      -1.09    0.02   -1.01
#  13    0.13   -4.70    4.38    0.82    0.41    0.00    0.00       1.05    2.41    1.22
#  14   -0.07   -1.86    0.55   -0.40   -0.93    0.00    0.00      -2.71   -1.42   -3.33
#  15    0.12   -1.03    0.18    1.81    0.44    0.00    0.00       1.51    8.43    2.04
#  16   -0.62   -0.46    0.02    0.38   -0.05    0.00    0.00      -0.73    1.42   -0.17
#  17   -0.43   -0.94    0.07    0.22   -0.10    0.00    0.00      -1.18    0.66   -0.30
#  18   -1.16   -1.37    0.19    0.70   -0.16    0.00    0.00      -1.79    1.75   -0.39
#  19   -0.63   -2.43    0.73    0.53   -0.22    0.00    0.00      -2.03    1.11   -0.47
#  20   -0.04   -1.85    0.30    0.13   -0.15    0.00    0.00      -1.61    0.29   -0.33
#  21   -1.81   -1.67    0.27    2.89    0.25    0.00    0.00      -0.06    5.92    0.52
#  22    2.41   -0.94    0.09   -1.61    0.01    0.00    0.00      -0.03   -3.47    0.02
#  23   -6.32   -1.87    0.58    4.41    0.15    0.00    0.00      -3.04    9.79    0.34
#  24    1.33   -1.75    0.51   -0.15   -0.14    0.00    0.00      -0.20   -0.35   -0.32
#  25   -2.42   -1.47    0.28    2.38   -0.16    0.00    0.00      -1.38    6.05   -0.41
#  26   14.07   -2.53    0.68   -7.58   -0.07    0.00    0.00       4.57  -17.10   -0.15
#  27  -20.56   -5.01    2.99   11.32   -0.11    0.00    0.00     -11.37   21.56   -0.21
#  28  -15.97   -2.75    1.08   13.44   -0.24    0.00    0.00      -4.43   31.59   -0.56
#  29    0.09   -0.24    0.07   -0.30   -0.06    0.00    0.00      -0.44   -1.35   -0.28
#  30    0.09   -0.22    0.04   -0.04   -0.06    0.00    0.00      -0.19   -0.19   -0.28
#  31    0.14   -0.29    0.14    0.00   -0.04    0.00    0.00      -0.04    0.00   -0.16
#  32    0.05   -0.14    0.01   -0.05   -0.02    0.00    0.00      -0.14   -0.39   -0.20
#  33   -0.03   -0.10    0.01   -0.07   -0.02    0.00    0.00      -0.21   -0.83   -0.28
#  34   -0.03   -0.09    0.00   -0.07   -0.02    0.00    0.00      -0.21   -0.80   -0.28
#  35    0.01   -0.04    0.00   -0.02   -0.01    0.00    0.00      -0.07   -0.46   -0.28
#  36    0.07   -0.07    0.00   -0.07   -0.02    0.00    0.00      -0.09   -1.08   -0.28
#  37    0.08   -0.05    0.00   -0.05   -0.01    0.00    0.00      -0.03   -1.08   -0.24
#  38    0.53   -0.22    0.09   -0.05   -0.03    0.00    0.00       0.31   -0.29   -0.19
#  39    0.26   -0.10    0.01   -0.02   -0.02    0.00    0.00       0.12   -0.19   -0.22
#  40    0.42   -0.28    0.09   -0.23   -0.05    0.00    0.00      -0.05   -1.18   -0.28
#  41    3.07   -0.01    0.00   -0.74    0.08    0.00    0.00       2.41   -4.52    0.52
#  42   -0.03   -0.08    0.01   -0.07   -0.02    0.00    0.00      -0.20   -0.87   -0.28
#  43   -0.03   -0.61    0.81   -0.23   -0.06    0.00    0.00      -0.12   -1.01   -0.28
#  44    0.06   -0.36    0.11   -0.08   -0.06    0.00    0.00      -0.33   -0.35   -0.28
#  45   -0.17   -0.23    0.06   -0.02    0.26    0.00    0.00      -0.10   -0.04    0.59
#  46   -0.12   -0.34    0.12   -0.29   -0.07    0.00    0.00      -0.70   -1.25   -0.28
#  47    0.85   -0.14    0.01   -0.26   -0.02    0.00    0.00       0.45   -1.63   -0.14
#  48    0.45   -0.19    0.01   -0.34   -0.05    0.00    0.00      -0.11   -1.80   -0.28
#  49    0.92   -0.34    0.14   -0.77   -0.08    0.00    0.00      -0.13   -2.59   -0.28
#  50    0.03   -1.32    2.91   -1.26   -0.14    0.00    0.00       0.22   -2.58   -0.28
#  51    0.86   -0.31    0.10   -0.59   -0.06    0.00    0.00      -0.01   -2.69   -0.28
#  52    1.05   -0.30    0.04   -0.60   -0.09    0.00    0.00       0.11   -1.76   -0.28

@<TRIPOS>MOLECULE
      GL5243102_0        86
   52    54     0     0     0



@<TRIPOS>ATOM
      1 C1          7.5735   -46.1386    -0.0234 C.3        1          -0.1367
      2 C2          8.3191   -46.5922     1.2334 C.3        1          -0.0900
      3 C3          7.3086   -47.0206     2.2993 C.3        1          -0.1455
      4 C4          9.2283   -47.7734     0.8884 C.3        1          -0.0986
      5 C5         10.2389   -47.3448    -0.1774 C.3        1          -0.0822
      6 C6         11.1482   -48.5262    -0.5223 C.3        1           0.1197
      7 N1         11.8620   -48.9605     0.6810 N.am       1          -0.7284
      8 C7         11.3228   -49.9004     1.4822 C.2        1           0.5117
      9 O1         10.2464   -50.3868     1.2071 O.2        1          -0.5254
     10 C8         12.0573   -50.3473     2.7198 C.3        1          -0.0583
     11 C9         11.6516   -49.4817     3.8848 C.2        1           0.0230
     12 C10        11.2603   -48.1948     3.8160 C.2        1          -0.0553
     13 N2         10.9849   -47.7957     5.0961 N.pl3      1          -0.5733
     14 C11        11.2178   -48.8533     5.9031 C.2        1           0.1805
     15 N3         11.6113   -49.8595     5.1711 N.2        1          -0.4635
     16 C12        11.0859   -46.1888     0.3582 C.3        1          -0.0748
     17 C13        12.0813   -45.7668    -0.6916 C.ar       1          -0.0361
     18 C14        11.6413   -45.3115    -1.9146 C.ar       1          -0.1341
     19 C15        12.5493   -44.9213    -2.8860 C.ar       1          -0.1013
     20 C16        13.9086   -44.9844    -2.6376 C.ar       1          -0.0052
     21 O2         14.9956   -44.6704    -3.3977 O.3        1          -0.3200
     22 C17        16.1138   -45.3521    -2.8095 C.3        1           0.2052
     23 O3         15.7288   -45.4022    -1.4276 O.3        1          -0.2786
     24 C18        14.3705   -45.4422    -1.4053 C.ar       1           0.0739
     25 C19        13.4535   -45.8320    -0.4218 C.ar       1          -0.1234
     26 C20        13.9291   -46.3121     0.8857 C.2        1           0.5218
     27 O4         14.1005   -45.5206     1.8025 O.co2      1          -0.6606
     28 O5         14.1532   -47.5028     1.0555 O.co2      1          -0.6750
     29 H1          8.2935   -45.8334    -0.7828 H          1           0.0256
     30 H2          6.9701   -46.9622    -0.4050 H          1           0.0412
     31 H3          6.9258   -45.2971     0.2223 H          1           0.0860
     32 H4          8.9226   -45.7685     1.6149 H          1           0.0893
     33 H5          7.8399   -47.3438     3.1945 H          1           0.0434
     34 H6          6.6609   -46.1790     2.5449 H          1           0.0446
     35 H7          6.7052   -47.8443     1.9176 H          1           0.0480
     36 H8          9.7595   -48.0965     1.7837 H          1           0.0528
     37 H9          8.6250   -48.5970     0.5068 H          1           0.0505
     38 H10         9.7076   -47.0217    -1.0728 H          1           0.0928
     39 H11        10.5446   -49.3499    -0.9039 H          1           0.0686
     40 H12        11.8680   -48.2210    -1.2816 H          1           0.0587
     41 H13        12.7231   -48.5714     0.9010 H          1           0.3980
     42 H14        11.8080   -51.3863     2.9351 H          1           0.1019
     43 H15        13.1314   -50.2575     2.5571 H          1           0.1030
     44 H16        11.1797   -47.5934     2.9227 H          1           0.1751
     45 H17        10.6798   -46.9174     5.3721 H          1           0.4177
     46 H18        11.0946   -48.8656     6.9759 H          1           0.2056
     47 H19        10.4382   -45.3472     0.6038 H          1           0.1333
     48 H20        11.6171   -46.5120     1.2535 H          1           0.0477
     49 H21        10.5819   -45.2586    -2.1179 H          1           0.1274
     50 H22        12.1938   -44.5665    -3.8421 H          1           0.1232
     51 H23        16.2200   -46.3555    -3.2218 H          1           0.1221
     52 H24        17.0320   -44.7790    -2.9384 H          1           0.0739
@<TRIPOS>BOND
     1    1    2 1
     2    1   29 1
     3    1   30 1
     4    1   31 1
     5    2    3 1
     6    2    4 1
     7    2   32 1
     8    3   33 1
     9    3   34 1
    10    3   35 1
    11    4    5 1
    12    4   36 1
    13    4   37 1
    14    5    6 1
    15    5   16 1
    16    5   38 1
    17    6    7 1
    18    6   39 1
    19    6   40 1
    20    7    8 am
    21    7   41 1
    22    8    9 2
    23    8   10 1
    24   10   11 1
    25   10   42 1
    26   10   43 1
    27   11   15 1
    28   11   12 2
    29   12   13 1
    30   12   44 1
    31   13   14 1
    32   13   45 1
    33   14   15 2
    34   14   46 1
    35   16   17 1
    36   16   47 1
    37   16   48 1
    38   17   25 ar
    39   17   18 ar
    40   18   19 ar
    41   18   49 1
    42   19   20 ar
    43   19   50 1
    44   20   24 ar
    45   20   21 1
    46   21   22 1
    47   22   23 1
    48   22   51 1
    49   22   52 1
    50   23   24 1
    51   24   25 ar
    52   25   26 1
    53   26   27 1
    54   26   28 2
