AVX17556_3, 3
##########                 Name:           AVX17556_0
##########          Protonation:                  100
##########               SMILES:   c1ccc2c(c1)C[C@H]([C@@H]2Cc3ccc4c(c3C(=O)[O-])OCO4)NC(=O)CCCC[NH3+]
##########            Long Name:   (5-azaniumylpentanoylamino)indan-1-yl]methyl]-1,3-benzodioxole-4-carboxylate
##########          FlexRecCode: 1
##########               Number:                  181
##########   Ligand Source File: /raid1/people/rgc/Examples/sampl4/screening/ligands/build_1//sampl4-hivint-00000
##########           GlobalRank: 71
##########                 Rank:                    1
##########               Setnum:                    4
##########             Matchnum:                10197
##########                Cloud:                    1
##########        Electrostatic:           -29.538563
##########        Van der Waals:           -23.139034
##########  Ligand Polar Desolv:            27.299183
########## Ligand Apolar Desolv:            -1.903595
##########      Internal Energy:             0.000000
##########      Receptor Energy: 0.0
########## Receptor Desolvation:             0.000000
########## Receptor Hydrophobic:             0.000000
##########         Total Energy: -27.28
##########        Ligand Charge:             0.000000
##########            Arbitrary:    +999.9990
##########     heavy atom count:   30
##########           pose count:    1
##########        Ligand Energy:             0.000000
# num electro vdwattr vdwrepu polsolv apolsol rdesolv rhydroe totalscore fullpol fullapo
#   1   -0.07   -1.10    0.40   -5.14    0.22    0.00    0.00      -5.68  -19.75    0.86
#   2   -2.42   -0.05    0.01    3.36    0.13    0.00    0.00       1.02   15.20    0.58
#   3    1.62   -0.02    0.00    4.27    0.16    0.00    0.00       6.03   15.43    0.58
#   4    0.36   -0.02    0.00    3.69    0.14    0.00    0.00       4.17   16.17    0.60
#   5    0.00   -0.45    0.09    0.12   -0.09    0.00    0.00      -0.34    0.68   -0.49
#   6   -0.09   -0.24    0.01   -0.40   -0.03    0.00    0.00      -0.74   -2.95   -0.24
#   7    0.07   -0.46    0.14   -0.15   -0.03    0.00    0.00      -0.44   -1.13   -0.19
#   8    0.05   -0.25    0.02   -0.10   -0.03    0.00    0.00      -0.30   -0.85   -0.24
#   9   -0.08   -0.75    0.15   -0.06   -0.11    0.00    0.00      -0.85   -0.34   -0.66
#  10    0.03   -2.47    2.09    0.46    0.09    0.00    0.00       0.21    1.84    0.37
#  11    0.01   -0.42    0.02    0.44    0.27    0.00    0.00       0.33    3.14    1.96
#  12    0.01   -0.65    0.10   -0.26   -0.05    0.00    0.00      -0.84   -1.22   -0.23
#  13    0.04   -0.65    0.20    0.07   -0.05    0.00    0.00      -0.40    0.36   -0.27
#  14   -0.03   -0.41    0.03    0.11   -0.06    0.00    0.00      -0.35    0.87   -0.43
#  15   -0.01   -0.30    0.01    0.07   -0.06    0.00    0.00      -0.29    0.57   -0.47
#  16   -0.10   -0.63    0.14    0.12   -0.09    0.00    0.00      -0.55    0.66   -0.47
#  17   -0.27   -1.03    0.22    0.33   -0.12    0.00    0.00      -0.88    1.29   -0.47
#  18   -0.29   -0.70    0.12    0.42   -0.09    0.00    0.00      -0.54    2.01   -0.45
#  19   -0.15   -0.42    0.01    0.24   -0.06    0.00    0.00      -0.37    1.53   -0.39
#  20   -0.12   -0.45    0.03    0.06   -0.03    0.00    0.00      -0.52    0.27   -0.13
#  21   -0.50   -1.14    0.34    0.30   -0.06    0.00    0.00      -1.06    0.92   -0.17
#  22   -0.34   -1.24    0.29    0.09   -0.10    0.00    0.00      -1.30    0.28   -0.31
#  23   -1.02   -1.02    0.16    0.22   -0.15    0.00    0.00      -1.81    0.66   -0.45
#  24   -0.81   -1.38    0.18    0.03   -0.21    0.00    0.00      -2.20    0.06   -0.47
#  25   -0.07   -1.72    0.25   -0.10   -0.16    0.00    0.00      -1.79   -0.21   -0.33
#  26   -1.58   -3.22    2.14    0.69    0.27    0.00    0.00      -1.70    1.32    0.52
#  27    1.12   -1.66    0.52   -0.42    0.01    0.00    0.00      -0.43   -0.86    0.02
#  28   -3.98   -1.54    0.41    2.58    0.15    0.00    0.00      -2.37    5.74    0.34
#  29    1.16   -1.82    0.72   -0.22   -0.13    0.00    0.00      -0.29   -0.51   -0.32
#  30   -2.27   -1.69    0.53    1.43   -0.16    0.00    0.00      -2.16    3.73   -0.41
#  31   14.03   -2.49    0.66   -6.10   -0.07    0.00    0.00       6.04  -13.75   -0.16
#  32  -23.36   -5.40    3.28   11.31   -0.16    0.00    0.00     -14.32   21.03   -0.29
#  33  -15.28   -1.94    0.44   10.45   -0.23    0.00    0.00      -6.56   25.37   -0.56
#  34    0.12   -0.34    0.23    0.59   -0.05    0.00    0.00       0.55    3.51   -0.28
#  35    0.02   -0.07    0.00    0.19   -0.02    0.00    0.00       0.13    3.23   -0.28
#  36    0.16   -0.08    0.00    0.15   -0.02    0.00    0.00       0.21    1.95   -0.28
#  37    0.04   -0.03    0.00    0.06   -0.01    0.00    0.00       0.06    2.35   -0.28
#  38   -0.04   -0.07    0.01    0.03   -0.02    0.00    0.00      -0.08    0.60   -0.28
#  39   -0.13   -0.74    1.87    0.09   -0.06    0.00    0.00       1.04    0.45   -0.28
#  40   -0.02   -0.02    0.00    0.01   -0.01    0.00    0.00      -0.04    0.54   -0.28
#  41   -0.04   -0.07    0.00    0.07   -0.02    0.00    0.00      -0.05    1.03   -0.28
#  42    0.11    0.00    0.00   -0.07    0.02    0.00    0.00       0.06   -2.30    0.57
#  43    0.04   -0.60    0.41   -0.17   -0.07    0.00    0.00      -0.39   -0.65   -0.25
#  44   -0.03   -0.09    0.01   -0.03   -0.02    0.00    0.00      -0.17   -0.41   -0.28
#  45   -0.06   -1.01    3.14   -0.08   -0.06    0.00    0.00       1.93   -0.33   -0.28
#  46   -0.03   -0.04    0.00   -0.01   -0.01    0.00    0.00      -0.08   -0.27   -0.28
#  47    0.03   -0.19    0.10   -0.05   -0.04    0.00    0.00      -0.15   -0.35   -0.28
#  48    0.40   -0.51    0.23   -0.35   -0.09    0.00    0.00      -0.31   -1.09   -0.28
#  49    0.68   -0.24    0.11   -0.25   -0.05    0.00    0.00       0.26   -1.41   -0.27
#  50    0.62   -0.10    0.00   -0.05   -0.02    0.00    0.00       0.46   -0.59   -0.22
#  51    0.24   -0.46    0.25   -0.23   -0.06    0.00    0.00      -0.26   -0.78   -0.20
#  52    0.69   -0.93    1.10   -0.38   -0.10    0.00    0.00       0.38   -1.02   -0.27
#  53    0.64   -0.14    0.01   -0.10   -0.04    0.00    0.00       0.36   -0.67   -0.28
#  54    0.73   -0.36    0.08    0.07   -0.10    0.00    0.00       0.41    0.19   -0.28
#  55    0.33   -0.67    0.29   -0.09   -0.11    0.00    0.00      -0.24   -0.24   -0.28
#  56    0.30   -0.65    0.43   -0.04   -0.11    0.00    0.00      -0.07   -0.10   -0.28

@<TRIPOS>MOLECULE
       AVX17556_0       100
   56    59     0     0     0



@<TRIPOS>ATOM
      1 N1         14.2878   -51.0754    -0.5798 N.4        1          -0.6382
      2 H1         14.6853   -51.5484     0.2179 H          1           0.4353
      3 H2         14.2381   -50.0850    -0.3931 H          1           0.4343
      4 H3         14.8677   -51.2364    -1.3896 H          1           0.4367
      5 C1         12.9371   -51.5942    -0.8336 C.3        1          -0.0090
      6 C2         12.0578   -51.3500     0.3943 C.3        1          -0.1538
      7 C3         12.6605   -52.0673     1.6040 C.3        1          -0.0999
      8 C4         11.7811   -51.8232     2.8320 C.3        1          -0.1454
      9 C5         11.7068   -50.3440     3.1108 C.2        1           0.5168
     10 O1         12.5217   -49.8233     3.8427 O.2        1          -0.5466
     11 N2         10.7349   -49.6000     2.5468 N.am       1          -0.7076
     12 C6         10.6627   -48.1620     2.8179 C.3        1           0.1458
     13 C7          9.2884   -47.7726     3.3729 C.3        1          -0.0867
     14 C8          8.4309   -47.5547     2.1514 C.ar       1          -0.1071
     15 C9          7.0560   -47.5676     1.9900 C.ar       1          -0.1118
     16 C10         6.5016   -47.3356     0.7463 C.ar       1          -0.1261
     17 C11         7.3208   -47.0896    -0.3399 C.ar       1          -0.1215
     18 C12         8.6927   -47.0762    -0.1799 C.ar       1          -0.0882
     19 C13         9.2497   -47.3089     1.0660 C.ar       1          -0.0658
     20 C14        10.6883   -47.3523     1.5171 C.3        1          -0.0341
     21 C15        11.2077   -45.9374     1.7798 C.3        1          -0.0671
     22 C16        11.6334   -45.3088     0.4779 C.ar       1          -0.0292
     23 C17        10.7283   -44.5846    -0.2655 C.ar       1          -0.1276
     24 C18        11.1107   -44.0030    -1.4639 C.ar       1          -0.1027
     25 C19        12.4068   -44.1433    -1.9265 C.ar       1          -0.0081
     26 O2         13.0358   -43.6864    -3.0460 O.3        1          -0.3208
     27 C20        14.2052   -44.5013    -3.2168 C.3        1           0.2059
     28 O3         14.5151   -44.8521    -1.8599 O.3        1          -0.2754
     29 C21        13.3349   -44.8726    -1.1861 C.ar       1           0.0746
     30 C22        12.9504   -45.4563     0.0270 C.ar       1          -0.1204
     31 C23        13.9233   -46.2244     0.8206 C.2        1           0.5183
     32 O4         14.6035   -45.6606     1.6668 O.co2      1          -0.6674
     33 O5         14.0518   -47.4266     0.6338 O.co2      1          -0.6711
     34 H4         12.5076   -51.0831    -1.6954 H          1           0.1345
     35 H5         12.9908   -52.6640    -1.0352 H          1           0.1352
     36 H6         12.0041   -50.2802     0.5959 H          1           0.0891
     37 H7         11.0556   -51.7350     0.2059 H          1           0.0878
     38 H8         12.7142   -53.1371     1.4025 H          1           0.0812
     39 H9         13.6626   -51.6822     1.7925 H          1           0.0831
     40 H10        10.7788   -52.2082     2.6435 H          1           0.0958
     41 H11        12.2104   -52.3341     3.6937 H          1           0.0940
     42 H12        10.0832   -50.0164     1.9614 H          1           0.4031
     43 H13        11.4619   -47.8506     3.4907 H          1           0.1027
     44 H14         8.8825   -48.5796     3.9830 H          1           0.0779
     45 H15         9.3603   -46.8541     3.9554 H          1           0.0740
     46 H16         6.4157   -47.7598     2.8381 H          1           0.1136
     47 H17         5.4287   -47.3467     0.6225 H          1           0.1190
     48 H18         6.8885   -46.9084    -1.3128 H          1           0.1216
     49 H19         9.3324   -46.8844    -1.0287 H          1           0.1311
     50 H20        11.3056   -47.8522     0.7707 H          1           0.1081
     51 H21        10.4171   -45.3381     2.2313 H          1           0.1216
     52 H22        12.0606   -45.9833     2.4571 H          1           0.0527
     53 H23         9.7141   -44.4693     0.0873 H          1           0.1256
     54 H24        10.3931   -43.4375    -2.0398 H          1           0.1199
     55 H25        13.9795   -45.3890    -3.8077 H          1           0.1230
     56 H26        15.0168   -43.9298    -3.6673 H          1           0.0696
@<TRIPOS>BOND
     1    1    2 1
     2    1    3 1
     3    1    4 1
     4    1    5 1
     5    5    6 1
     6    5   34 1
     7    5   35 1
     8    6    7 1
     9    6   36 1
    10    6   37 1
    11    7    8 1
    12    7   38 1
    13    7   39 1
    14    8    9 1
    15    8   40 1
    16    8   41 1
    17    9   10 2
    18    9   11 am
    19   11   12 1
    20   11   42 1
    21   12   20 1
    22   12   13 1
    23   12   43 1
    24   13   14 1
    25   13   44 1
    26   13   45 1
    27   14   19 ar
    28   14   15 ar
    29   15   16 ar
    30   15   46 1
    31   16   17 ar
    32   16   47 1
    33   17   18 ar
    34   17   48 1
    35   18   19 ar
    36   18   49 1
    37   19   20 1
    38   20   21 1
    39   20   50 1
    40   21   22 1
    41   21   51 1
    42   21   52 1
    43   22   30 ar
    44   22   23 ar
    45   23   24 ar
    46   23   53 1
    47   24   25 ar
    48   24   54 1
    49   25   29 ar
    50   25   26 1
    51   26   27 1
    52   27   28 1
    53   27   55 1
    54   27   56 1
    55   28   29 1
    56   29   30 ar
    57   30   31 1
    58   31   32 1
    59   31   33 2
