GL5243104_0, 3
##########                 Name:          GL5243104_0
##########          Protonation:                  100
##########               SMILES:   CC(C)C[C@H](Cc1ccc2c(c1C(=O)[O-])OCO2)CNC(=O)c3ccncc3
##########            Long Name:   l-2-[(pyridine-4-carbonylamino)methyl]pentyl]-1,3-benzodioxole-4-carboxylate
##########          FlexRecCode: 1
##########               Number:                  399
##########   Ligand Source File: /raid1/people/rgc/Examples/sampl4/screening/ligands/build_1//sampl4-hivint-00000
##########           GlobalRank: 65
##########                 Rank:                    1
##########               Setnum:                   24
##########             Matchnum:                19445
##########                Cloud:                    1
##########        Electrostatic:           -29.416037
##########        Van der Waals:           -22.809973
##########  Ligand Polar Desolv:            26.534031
########## Ligand Apolar Desolv:            -2.254372
##########      Internal Energy:             0.000000
##########      Receptor Energy: 0.0
########## Receptor Desolvation:             0.000000
########## Receptor Hydrophobic:             0.000000
##########         Total Energy: -27.95
##########        Ligand Charge:            -1.000000
##########            Arbitrary:    +999.9990
##########     heavy atom count:   28
##########           pose count:    1
##########        Ligand Energy:             0.000000
# num electro vdwattr vdwrepu polsolv apolsol rdesolv rhydroe totalscore fullpol fullapo
#   1   -0.48   -0.70    0.27    0.44   -0.04    0.00    0.00      -0.51    1.96   -0.17
#   2   -0.31   -0.23    0.01    0.15   -0.02    0.00    0.00      -0.40    1.07   -0.14
#   3   -0.23   -0.19    0.01    0.10   -0.02    0.00    0.00      -0.34    0.80   -0.18
#   4   -0.60   -0.33    0.01    0.19   -0.03    0.00    0.00      -0.75    1.04   -0.17
#   5   -0.61   -0.39    0.01    0.35   -0.03    0.00    0.00      -0.66    1.54   -0.12
#   6    0.19   -0.62    0.13   -0.52   -0.08    0.00    0.00      -0.90   -2.31   -0.37
#   7   -0.07   -1.39    0.36    2.64    0.37    0.00    0.00       1.91   10.83    1.51
#   8   -0.16   -1.15    0.31   -1.82   -0.14    0.00    0.00      -2.96   -8.59   -0.66
#   9    0.29   -0.72    0.14    1.90    0.07    0.00    0.00       1.68   11.31    0.40
#  10    0.02   -1.00    0.15    0.33   -0.09    0.00    0.00      -0.58    1.50   -0.41
#  11    0.01   -1.43    0.56    0.30   -0.10    0.00    0.00      -0.64    1.36   -0.45
#  12   -0.03   -1.27    0.48   -0.16   -0.20    0.00    0.00      -1.17   -0.80   -0.98
#  13    0.16   -0.52    0.03    0.70    0.32    0.00    0.00       0.68    4.45    2.05
#  14   -0.04   -0.52    0.04   -0.13   -0.16    0.00    0.00      -0.81   -0.84   -0.98
#  15    0.05   -0.81    0.09    0.26   -0.09    0.00    0.00      -0.49    1.32   -0.45
#  16   -0.73   -0.73    0.10    0.41   -0.06    0.00    0.00      -1.00    1.29   -0.18
#  17   -0.69   -1.05    0.10    0.43   -0.11    0.00    0.00      -1.33    1.19   -0.32
#  18   -0.96   -1.37    0.17    0.28   -0.16    0.00    0.00      -2.04    0.68   -0.39
#  19   -0.64   -3.24    1.68    0.31   -0.23    0.00    0.00      -2.12    0.64   -0.47
#  20    0.08   -3.41    1.98   -0.14   -0.15    0.00    0.00      -1.64   -0.32   -0.33
#  21   -0.03   -4.76    4.83    2.22    0.25    0.00    0.00       2.50    4.70    0.52
#  22    0.46   -1.30    0.34   -1.33    0.01    0.00    0.00      -1.82   -2.97    0.02
#  23   -2.68   -2.01    1.66    3.84    0.19    0.00    0.00       1.00    9.60    0.48
#  24    0.48   -2.08    1.09    0.23   -0.13    0.00    0.00      -0.41    0.60   -0.33
#  25   -1.45   -1.37    0.20    2.02   -0.16    0.00    0.00      -0.75    5.17   -0.40
#  26   15.53   -2.38    0.86   -8.15   -0.06    0.00    0.00       5.80  -18.98   -0.13
#  27  -26.11   -4.93    4.34   16.18   -0.21    0.00    0.00     -10.72   32.26   -0.42
#  28  -16.34   -2.34    0.92   11.68   -0.16    0.00    0.00      -6.24   28.39   -0.39
#  29    0.21   -0.19    0.05   -0.09   -0.05    0.00    0.00      -0.07   -0.52   -0.28
#  30    0.25   -0.57    0.84   -0.25   -0.07    0.00    0.00       0.20   -0.95   -0.28
#  31    0.07   -0.15    0.02   -0.01   -0.03    0.00    0.00      -0.10   -0.04   -0.19
#  32    0.11   -0.04    0.00   -0.03   -0.01    0.00    0.00       0.03   -0.81   -0.18
#  33    0.07   -0.04    0.00   -0.01   -0.01    0.00    0.00       0.01   -0.36   -0.28
#  34    0.01   -0.03    0.00   -0.01   -0.01    0.00    0.00      -0.04   -0.42   -0.28
#  35    0.14   -0.11    0.01   -0.05   -0.03    0.00    0.00      -0.04   -0.43   -0.28
#  36    0.32   -0.10    0.00   -0.09   -0.02    0.00    0.00       0.11   -0.97   -0.28
#  37    0.51   -0.15    0.02   -0.11   -0.03    0.00    0.00       0.23   -0.74   -0.22
#  38    0.57   -0.12    0.01   -0.07   -0.02    0.00    0.00       0.37   -0.62   -0.17
#  39   -0.08   -0.44    0.43   -0.40   -0.07    0.00    0.00      -0.56   -1.59   -0.28
#  40    0.04   -0.09    0.01   -0.01   -0.02    0.00    0.00      -0.08   -0.17   -0.28
#  41    0.26   -0.03    0.00   -1.28    0.04    0.00    0.00      -1.00   -5.88    0.19
#  42    0.02   -0.31    0.12   -0.25   -0.04    0.00    0.00      -0.47   -1.33   -0.22
#  43   -0.07   -0.42    0.27   -0.21   -0.06    0.00    0.00      -0.48   -1.00   -0.28
#  44   -0.08   -0.07    0.00   -0.06   -0.02    0.00    0.00      -0.22   -0.98   -0.28
#  45   -0.09   -0.17    0.02   -0.23   -0.04    0.00    0.00      -0.51   -1.55   -0.27
#  46    0.89   -0.34    0.18    0.09   -0.07    0.00    0.00       0.74    0.31   -0.25
#  47    1.11   -0.31    0.05   -0.62   -0.08    0.00    0.00       0.14   -2.13   -0.28
#  48    0.91   -0.25    0.04   -0.42   -0.07    0.00    0.00       0.20   -1.63   -0.28
#  49    0.19   -1.45    2.40   -0.91   -0.15    0.00    0.00       0.08   -1.67   -0.28
#  50   -0.25   -0.34    0.07   -0.61   -0.08    0.00    0.00      -1.21   -2.16   -0.28
#  51    0.38   -0.30    0.03   -0.55   -0.10    0.00    0.00      -0.55   -1.56   -0.28

@<TRIPOS>MOLECULE
      GL5243104_0       100
   51    53     0     0     0



@<TRIPOS>ATOM
      1 C1          8.5960   -48.2500    -0.9589 C.3        1          -0.1625
      2 C2          9.5982   -48.7901     0.0632 C.3        1          -0.1183
      3 C3         10.0196   -50.2060    -0.3348 C.3        1          -0.1429
      4 C4         10.8295   -47.8826     0.0989 C.3        1          -0.1106
      5 C5         10.4080   -46.4666     0.4969 C.3        1          -0.1073
      6 C6          9.7575   -46.4984     1.8814 C.3        1           0.1253
      7 N1         10.4935   -47.4243     2.7457 N.am       1          -0.7122
      8 C7          9.8503   -48.0832     3.7299 C.2        1           0.5498
      9 O1          8.6599   -47.9094     3.9002 O.2        1          -0.5325
     10 C8         10.5947   -49.0195     4.6040 C.ar       1          -0.0829
     11 C9         11.7459   -49.6680     4.1467 C.ar       1          -0.1427
     12 C10        12.4095   -50.5327     4.9956 C.ar       1           0.0976
     13 N2         11.9707   -50.7493     6.2194 N.ar       1          -0.4720
     14 C11        10.8901   -50.1589     6.6898 C.ar       1           0.0940
     15 C12        10.1689   -49.2748     5.9110 C.ar       1          -0.1166
     16 C13        11.6392   -45.5591     0.5326 C.3        1          -0.0641
     17 C14        12.2798   -45.5278    -0.8310 C.ar       1          -0.0558
     18 C15        11.5669   -45.0704    -1.9168 C.ar       1          -0.1145
     19 C16        12.1484   -45.0379    -3.1739 C.ar       1          -0.1168
     20 C17        13.4531   -45.4649    -3.3537 C.ar       1           0.0161
     21 O2         14.2378   -45.5310    -4.4692 O.3        1          -0.3171
     22 C18        15.5870   -45.6562    -3.9819 C.3        1           0.2108
     23 O3         15.4290   -46.2873    -2.6973 O.3        1          -0.2989
     24 C19        14.1880   -45.9303    -2.2661 C.ar       1           0.0462
     25 C20        13.6015   -45.9581    -0.9937 C.ar       1          -0.0855
     26 C21        14.3697   -46.4426     0.1645 C.2        1           0.5348
     27 O4         15.0323   -45.6588     0.8301 O.co2      1          -0.6786
     28 O5         14.3454   -47.6291     0.4615 O.co2      1          -0.6771
     29 H1          8.2957   -47.2413    -0.6754 H          1           0.0616
     30 H2          9.0595   -48.2275    -1.9453 H          1           0.0510
     31 H3          7.7188   -48.8966    -0.9845 H          1           0.0667
     32 H4          9.1347   -48.8127     1.0495 H          1           0.0797
     33 H5         10.7336   -50.5908     0.3934 H          1           0.0538
     34 H6          9.1425   -50.8527    -0.3602 H          1           0.0507
     35 H7         10.4831   -50.1835    -1.3210 H          1           0.0502
     36 H8         11.5435   -48.2674     0.8270 H          1           0.0601
     37 H9         11.2929   -47.8600    -0.8875 H          1           0.0729
     38 H10         9.6939   -46.0819    -0.2311 H          1           0.1105
     39 H11         9.7803   -45.4992     2.3165 H          1           0.0726
     40 H12         8.7235   -46.8312     1.7895 H          1           0.0725
     41 H13        11.4439   -47.5631     2.6098 H          1           0.4065
     42 H14        12.1108   -49.4957     3.1449 H          1           0.1389
     43 H15        13.2997   -51.0383     4.6516 H          1           0.1627
     44 H16        10.5663   -50.3663     7.6991 H          1           0.1627
     45 H17         9.2871   -48.7910     6.3045 H          1           0.1483
     46 H18        11.3389   -44.5504     0.8162 H          1           0.0840
     47 H19        12.3532   -45.9439     1.2608 H          1           0.0715
     48 H20        10.5483   -44.7354    -1.7878 H          1           0.1305
     49 H21        11.5803   -44.6775    -4.0188 H          1           0.1256
     50 H22        16.1779   -46.2853    -4.6477 H          1           0.1245
     51 H23        16.0474   -44.6744    -3.8723 H          1           0.0768
@<TRIPOS>BOND
     1    1    2 1
     2    1   29 1
     3    1   30 1
     4    1   31 1
     5    2    3 1
     6    2    4 1
     7    2   32 1
     8    3   33 1
     9    3   34 1
    10    3   35 1
    11    4    5 1
    12    4   36 1
    13    4   37 1
    14    5    6 1
    15    5   16 1
    16    5   38 1
    17    6    7 1
    18    6   39 1
    19    6   40 1
    20    7    8 am
    21    7   41 1
    22    8    9 2
    23    8   10 1
    24   10   15 ar
    25   10   11 ar
    26   11   12 ar
    27   11   42 1
    28   12   13 ar
    29   12   43 1
    30   13   14 ar
    31   14   15 ar
    32   14   44 1
    33   15   45 1
    34   16   17 1
    35   16   46 1
    36   16   47 1
    37   17   25 ar
    38   17   18 ar
    39   18   19 ar
    40   18   48 1
    41   19   20 ar
    42   19   49 1
    43   20   24 ar
    44   20   21 1
    45   21   22 1
    46   22   23 1
    47   22   50 1
    48   22   51 1
    49   23   24 1
    50   24   25 ar
    51   25   26 1
    52   26   27 1
    53   26   28 2
