GL5243106_0, 3
##########                 Name:          GL5243106_0
##########          Protonation:                  100
##########               SMILES:   CC(C)C[C@@H](Cc1ccc2c(c1C(=O)[O-])OCO2)CNC(=O)c3ccc(cc3)N
##########            Long Name:   4-aminobenzoyl)amino]methyl]-4-methyl-pentyl]-1,3-benzodioxole-4-carboxylate
##########          FlexRecCode: 1
##########               Number:                   32
##########   Ligand Source File: /raid1/people/rgc/Examples/sampl4/screening/ligands/build_1//sampl4-hivint-00000
##########           GlobalRank: 40
##########                 Rank:                    1
##########               Setnum:                   12
##########             Matchnum:                  155
##########                Cloud:                    1
##########        Electrostatic:           -28.736174
##########        Van der Waals:           -25.539122
##########  Ligand Polar Desolv:            25.592718
########## Ligand Apolar Desolv:            -2.224636
##########      Internal Energy:             0.000000
##########      Receptor Energy: 0.0
########## Receptor Desolvation:             0.000000
########## Receptor Hydrophobic:             0.000000
##########         Total Energy: -30.91
##########        Ligand Charge:            -1.000000
##########            Arbitrary:    +999.9990
##########     heavy atom count:   29
##########           pose count:    1
##########        Ligand Energy:             0.000000
# num electro vdwattr vdwrepu polsolv apolsol rdesolv rhydroe totalscore fullpol fullapo
#   1   -0.21   -0.39    0.02    0.23   -0.04    0.00    0.00      -0.38    1.06   -0.18
#   2   -0.06   -0.46    0.07    0.25   -0.03    0.00    0.00      -0.23    1.34   -0.15
#   3    0.14   -0.58    0.23    0.36   -0.03    0.00    0.00       0.12    2.22   -0.17
#   4   -0.26   -0.26    0.01    0.19   -0.02    0.00    0.00      -0.34    1.32   -0.17
#   5   -0.47   -0.34    0.01    0.24   -0.02    0.00    0.00      -0.57    1.24   -0.08
#   6    0.74   -0.46    0.05   -0.60   -0.08    0.00    0.00      -0.35   -2.97   -0.37
#   7   -2.65   -0.52    0.02    2.47    0.28    0.00    0.00      -0.40   13.36    1.50
#   8    0.66   -0.33    0.01   -1.29   -0.08    0.00    0.00      -1.03  -10.56   -0.65
#   9   -0.54   -0.20    0.00    1.22    0.03    0.00    0.00       0.51   14.25    0.41
#  10    0.06   -0.48    0.06    0.52   -0.05    0.00    0.00       0.10    3.86   -0.41
#  11    0.01   -1.28    0.60    0.10   -0.08    0.00    0.00      -0.65    0.52   -0.44
#  12    0.11   -1.51    0.81    0.33   -0.09    0.00    0.00      -0.35    1.74   -0.46
#  13   -0.13   -0.75    0.21   -0.24   -0.10    0.00    0.00      -1.01   -1.78   -0.73
#  14    0.42   -0.46    0.07    0.18    0.10    0.00    0.00       0.30    1.68    0.90
#  15    0.10   -0.36    0.05    0.16   -0.04    0.00    0.00      -0.09    1.75   -0.46
#  16    0.00   -0.29    0.03    0.03   -0.04    0.00    0.00      -0.27    0.39   -0.46
#  17   -0.62   -0.53    0.03    0.37   -0.05    0.00    0.00      -0.80    1.28   -0.17
#  18   -0.38   -0.99    0.08    0.21   -0.11    0.00    0.00      -1.19    0.59   -0.31
#  19   -1.16   -1.31    0.16    0.43   -0.16    0.00    0.00      -2.04    1.08   -0.40
#  20   -0.60   -2.58    0.83    0.24   -0.23    0.00    0.00      -2.34    0.50   -0.47
#  21   -0.03   -2.29    0.57    0.04   -0.15    0.00    0.00      -1.86    0.08   -0.33
#  22   -0.43   -2.64    1.06    2.48    0.26    0.00    0.00       0.73    4.96    0.52
#  23    1.65   -1.16    0.16   -1.60    0.01    0.00    0.00      -0.94   -3.10    0.02
#  24   -4.23   -1.28    0.14    4.17    0.15    0.00    0.00      -1.04    9.50    0.34
#  25    1.04   -1.60    0.28   -0.15   -0.13    0.00    0.00      -0.57   -0.35   -0.32
#  26   -2.28   -1.44    0.25    2.36   -0.16    0.00    0.00      -1.29    6.01   -0.41
#  27   15.73   -2.61    1.05   -7.76   -0.07    0.00    0.00       6.33  -17.69   -0.16
#  28  -24.53   -4.66    2.54   13.32   -0.15    0.00    0.00     -13.49   25.77   -0.29
#  29  -18.32   -3.05    2.25   13.38   -0.23    0.00    0.00      -5.97   32.14   -0.56
#  30    0.15   -0.13    0.01   -0.08   -0.04    0.00    0.00      -0.09   -0.57   -0.28
#  31    0.07   -0.10    0.01   -0.07   -0.03    0.00    0.00      -0.13   -0.56   -0.28
#  32    0.02   -0.13    0.01   -0.06   -0.03    0.00    0.00      -0.19   -0.48   -0.28
#  33    0.00   -0.30    0.14   -0.20   -0.03    0.00    0.00      -0.39   -0.99   -0.17
#  34   -0.03   -0.26    0.12   -0.10   -0.04    0.00    0.00      -0.32   -0.66   -0.28
#  35   -0.16   -0.27    0.17    0.00   -0.03    0.00    0.00      -0.28   -0.01   -0.19
#  36   -0.01   -0.05    0.00   -0.05   -0.01    0.00    0.00      -0.13   -1.11   -0.28
#  37    0.08   -0.10    0.00   -0.08   -0.02    0.00    0.00      -0.11   -0.85   -0.21
#  38    0.09   -0.04    0.00   -0.05   -0.01    0.00    0.00      -0.02   -1.16   -0.28
#  39    0.55   -0.14    0.02   -0.07   -0.02    0.00    0.00       0.34   -0.50   -0.16
#  40    0.34   -0.14    0.01    0.00   -0.04    0.00    0.00       0.18    0.03   -0.28
#  41    0.47   -0.28    0.09   -0.31   -0.05    0.00    0.00      -0.09   -1.63   -0.28
#  42    2.00   -0.01    0.00   -1.00    0.03    0.00    0.00       1.02   -7.12    0.19
#  43    0.00   -0.36    0.20   -0.29   -0.04    0.00    0.00      -0.48   -1.47   -0.22
#  44   -0.05   -0.35    0.17   -0.19   -0.06    0.00    0.00      -0.47   -0.94   -0.28
#  45   -0.18   -0.01    0.00   -0.01    0.05    0.00    0.00      -0.15   -0.13    0.59
#  46   -0.16    0.00    0.00    0.00    0.02    0.00    0.00      -0.14   -0.07    0.59
#  47   -0.04   -0.03    0.00   -0.02   -0.01    0.00    0.00      -0.10   -0.95   -0.28
#  48   -0.02   -0.02    0.00   -0.04   -0.01    0.00    0.00      -0.09   -1.64   -0.26
#  49    0.42   -0.18    0.01   -0.41   -0.06    0.00    0.00      -0.21   -2.05   -0.28
#  50    1.45   -0.23    0.02   -0.13   -0.05    0.00    0.00       1.07   -0.59   -0.21
#  51    0.93   -0.27    0.06   -0.49   -0.07    0.00    0.00       0.16   -1.91   -0.28
#  52    0.16   -1.19    1.74   -0.93   -0.14    0.00    0.00      -0.35   -1.84   -0.28
#  53    0.66   -0.26    0.02   -0.77   -0.09    0.00    0.00      -0.45   -2.36   -0.28
#  54    0.81   -0.61    0.23   -0.71   -0.12    0.00    0.00      -0.41   -1.62   -0.28

@<TRIPOS>MOLECULE
      GL5243106_0       100
   54    56     0     0     0



@<TRIPOS>ATOM
      1 C1          8.0176   -46.0695     0.8381 C.3        1          -0.1424
      2 C2          8.9950   -46.6230     1.8771 C.3        1          -0.1175
      3 C3          8.2185   -47.0882     3.1106 C.3        1          -0.1619
      4 C4          9.7589   -47.8061     1.2793 C.3        1          -0.1157
      5 C5         10.5354   -47.3410     0.0457 C.3        1          -0.0830
      6 C6         11.2993   -48.5242    -0.5521 C.3        1           0.1314
      7 N1         11.8594   -49.3400     0.5284 N.am       1          -0.7188
      8 C7         11.5025   -50.6338     0.6502 C.2        1           0.5557
      9 O1         10.7157   -51.1242    -0.1365 O.2        1          -0.5513
     10 C8         12.0665   -51.4552     1.7380 C.ar       1          -0.1914
     11 C9         12.4849   -50.8510     2.9272 C.ar       1          -0.0356
     12 C10        13.0102   -51.6200     3.9404 C.ar       1          -0.2062
     13 C11        13.1258   -52.9976     3.7821 C.ar       1           0.2368
     14 N2         13.6559   -53.7726     4.8077 N.pl3      1          -0.8719
     15 C12        12.7095   -53.6031     2.5989 C.ar       1          -0.2103
     16 C13        12.1785   -52.8401     1.5842 C.ar       1          -0.0097
     17 C14        11.5252   -46.2462     0.4489 C.3        1          -0.0620
     18 C15        12.2900   -45.7882    -0.7661 C.ar       1          -0.0309
     19 C16        11.6184   -45.2442    -1.8383 C.ar       1          -0.1339
     20 C17        12.3139   -44.8203    -2.9590 C.ar       1          -0.1031
     21 C18        13.6922   -44.9384    -3.0147 C.ar       1          -0.0053
     22 O2         14.5907   -44.6015    -3.9862 O.3        1          -0.3199
     23 C19        15.8720   -44.5723    -3.3298 C.3        1           0.2050
     24 O3         15.7157   -45.4933    -2.2342 O.3        1          -0.2782
     25 C20        14.3866   -45.4862    -1.9390 C.ar       1           0.0753
     26 C21        13.6836   -45.9101    -0.8032 C.ar       1          -0.1224
     27 C22        14.4067   -46.4855     0.3423 C.2        1           0.5205
     28 O4         14.8031   -45.7587     1.2431 O.co2      1          -0.6693
     29 O5         14.6114   -47.6905     0.3937 O.co2      1          -0.6745
     30 H1          8.5708   -45.7381    -0.0406 H          1           0.0487
     31 H2          7.3127   -46.8495     0.5507 H          1           0.0504
     32 H3          7.4734   -45.2267     1.2640 H          1           0.0516
     33 H4          9.7001   -45.8430     2.1644 H          1           0.0838
     34 H5          8.9147   -47.4825     3.8509 H          1           0.0586
     35 H6          7.6741   -46.2453     3.5364 H          1           0.0644
     36 H7          7.5134   -47.8682     2.8232 H          1           0.0500
     37 H8         10.4552   -48.2004     2.0195 H          1           0.0666
     38 H9          9.0539   -48.5861     0.9920 H          1           0.0575
     39 H10         9.8392   -46.9467    -0.6946 H          1           0.1009
     40 H11        10.6195   -49.1309    -1.1503 H          1           0.0743
     41 H12        12.1069   -48.1537    -1.1835 H          1           0.0629
     42 H13        12.4870   -48.9487     1.1559 H          1           0.4015
     43 H14        12.3963   -49.7818     3.0506 H          1           0.1243
     44 H15        13.3338   -51.1537     4.8591 H          1           0.1250
     45 H16        13.9455   -53.3525     5.6326 H          1           0.3993
     46 H17        13.7366   -54.7330     4.6984 H          1           0.3989
     47 H18        12.8001   -54.6726     2.4789 H          1           0.1245
     48 H19        11.8521   -53.3104     0.6683 H          1           0.1349
     49 H20        10.9810   -45.4033     0.8748 H          1           0.0507
     50 H21        12.2214   -46.6405     1.1891 H          1           0.1126
     51 H22        10.5432   -45.1479    -1.8055 H          1           0.1284
     52 H23        11.7774   -44.3954    -3.7945 H          1           0.1234
     53 H24        16.6566   -44.9112    -4.0062 H          1           0.1225
     54 H25        16.0901   -43.5704    -2.9598 H          1           0.0745
@<TRIPOS>BOND
     1    1    2 1
     2    1   30 1
     3    1   31 1
     4    1   32 1
     5    2    3 1
     6    2    4 1
     7    2   33 1
     8    3   34 1
     9    3   35 1
    10    3   36 1
    11    4    5 1
    12    4   37 1
    13    4   38 1
    14    5    6 1
    15    5   17 1
    16    5   39 1
    17    6    7 1
    18    6   40 1
    19    6   41 1
    20    7    8 am
    21    7   42 1
    22    8    9 2
    23    8   10 1
    24   10   16 ar
    25   10   11 ar
    26   11   12 ar
    27   11   43 1
    28   12   13 ar
    29   12   44 1
    30   13   14 1
    31   13   15 ar
    32   14   45 1
    33   14   46 1
    34   15   16 ar
    35   15   47 1
    36   16   48 1
    37   17   18 1
    38   17   49 1
    39   17   50 1
    40   18   26 ar
    41   18   19 ar
    42   19   20 ar
    43   19   51 1
    44   20   21 ar
    45   20   52 1
    46   21   25 ar
    47   21   22 1
    48   22   23 1
    49   23   24 1
    50   23   53 1
    51   23   54 1
    52   24   25 1
    53   25   26 ar
    54   26   27 1
    55   27   28 1
    56   27   29 2
