pC2A03_0, 3
##########                 Name:             pC2A03_0
##########          Protonation:                  100
##########               SMILES:   c1cc(ccc1n2cc3n(c2=O)CCCC3)Br
##########            Long Name:   2-(4-bromophenyl)-5,6,7,8-tetrahydroimidazo[1,5-a]pyridin-3-one
##########          FlexRecCode: 1
##########               Number:                   94
##########   Ligand Source File: /raid1/people/rgc/Examples/sampl4/screening/ligands/build_1//sampl4-hivint-00000
##########           GlobalRank: 82
##########                 Rank:                    1
##########               Setnum:                    1
##########             Matchnum:                 1785
##########                Cloud:                    1
##########        Electrostatic:            -9.703005
##########        Van der Waals:           -18.118706
##########  Ligand Polar Desolv:             4.865719
########## Ligand Apolar Desolv:            -2.988687
##########      Internal Energy:             0.000000
##########      Receptor Energy: 0.0
########## Receptor Desolvation:             0.000000
########## Receptor Hydrophobic:             0.000000
##########         Total Energy: -25.94
##########        Ligand Charge:             0.000000
##########            Arbitrary:    +999.9990
##########     heavy atom count:   17
##########           pose count:    1
##########        Ligand Energy:             0.000000
# num electro vdwattr vdwrepu polsolv apolsol rdesolv rhydroe totalscore fullpol fullapo
#   1   -0.05   -1.52    0.14    0.02   -0.22    0.00    0.00      -1.63    0.08   -1.09
#   2   -0.52   -0.63    0.03    0.06   -0.07    0.00    0.00      -1.12    0.26   -0.30
#   3   -0.38   -0.90    0.08   -0.01   -0.15    0.00    0.00      -1.36   -0.03   -0.46
#   4   -1.18   -1.12    0.11   -0.05   -0.17    0.00    0.00      -2.41   -0.12   -0.44
#   5    2.03   -1.02    0.08   -0.19   -0.24    0.00    0.00       0.65   -0.54   -0.70
#   6   -1.45   -0.77    0.04    0.30   -0.13    0.00    0.00      -2.00    1.07   -0.44
#   7   -0.38   -0.57    0.02    0.06   -0.10    0.00    0.00      -0.97    0.29   -0.46
#   8   -5.81   -1.40    0.16    0.72    0.52    0.00    0.00      -5.82    1.76    1.27
#   9   -0.13   -2.35    0.62   -0.02   -0.41    0.00    0.00      -2.29   -0.05   -0.89
#  10    0.24   -1.99    0.38    0.02   -0.33    0.00    0.00      -1.67    0.05   -0.69
#  11    0.03   -1.81    0.57   -0.14   -0.14    0.00    0.00      -1.51   -0.27   -0.27
#  12   -0.05   -1.12    0.22   -0.30   -0.11    0.00    0.00      -1.37   -0.67   -0.25
#  13   -1.87   -1.13    0.38   -0.19   -0.11    0.00    0.00      -2.93   -0.44   -0.25
#  14    2.35   -1.27    0.47   -0.04   -0.22    0.00    0.00       1.29   -0.10   -0.53
#  15   -7.49   -1.61    0.27    0.67    0.74    0.00    0.00      -7.42    1.55    1.71
#  16   12.63   -1.73    0.40   -1.80   -0.85    0.00    0.00       8.64   -4.46   -2.12
#  17  -17.28   -2.37    1.12    3.12    0.16    0.00    0.00     -15.25    7.53    0.38
#  18    0.62   -0.19    0.01    0.14   -0.06    0.00    0.00       0.53    0.65   -0.28
#  19    1.02   -0.28    0.02    0.37   -0.08    0.00    0.00       1.05    1.07   -0.23
#  20    1.92   -0.16    0.01   -0.17   -0.03    0.00    0.00       1.57   -1.22   -0.19
#  21    0.54   -0.08    0.00   -0.03   -0.02    0.00    0.00       0.41   -0.50   -0.28
#  22    0.22   -0.89    0.89    0.79   -0.11    0.00    0.00       0.90    1.75   -0.24
#  23   -0.69   -1.09    0.91    0.56   -0.15    0.00    0.00      -0.46    1.08   -0.28
#  24    0.16   -1.12    1.98    0.41   -0.14    0.00    0.00       1.29    0.82   -0.28
#  25   -0.24   -0.30    0.06    0.07   -0.07    0.00    0.00      -0.49    0.27   -0.28
#  26   -0.38   -0.62    0.57    0.35   -0.12    0.00    0.00      -0.20    0.83   -0.28
#  27    1.43   -0.33    0.15    0.14   -0.07    0.00    0.00       1.32    0.61   -0.28
#  28    1.42   -0.77    1.06    0.10   -0.11    0.00    0.00       1.70    0.25   -0.28
#  29    1.09   -0.38    0.15   -0.01   -0.07    0.00    0.00       0.78   -0.05   -0.28
#  30    2.50   -0.95    1.48   -0.08   -0.11    0.00    0.00       2.84   -0.20   -0.28

@<TRIPOS>MOLECULE
         pC2A03_0       100
   30    32     0     0     0



@<TRIPOS>ATOM
      1 Br1         8.0691   -46.0734     1.1405 Br         1          -0.0461
      2 C1          9.7173   -45.8979     0.2303 C.ar       1          -0.1107
      3 C2          9.9303   -44.8204    -0.6112 C.ar       1          -0.0630
      4 C3         11.1332   -44.6899    -1.2771 C.ar       1          -0.1404
      5 C4         12.1295   -45.6409    -1.1011 C.ar       1           0.1810
      6 C5         11.9134   -46.7209    -0.2557 C.ar       1          -0.1391
      7 C6         10.7105   -46.8441     0.4116 C.ar       1          -0.0609
      8 N1         13.3508   -45.5111    -1.7759 N.am       1          -0.4795
      9 C7         13.5401   -44.9031    -3.0119 C.2        1          -0.0213
     10 C8         14.8244   -44.9885    -3.3110 C.2        1           0.0418
     11 C9         15.5376   -44.4477    -4.5266 C.3        1          -0.0509
     12 C10        16.8958   -45.1557    -4.6314 C.3        1          -0.1249
     13 C11        17.6072   -45.0794    -3.2768 C.3        1          -0.1351
     14 C12        16.8947   -45.9927    -2.2724 C.3        1           0.1312
     15 N2         15.4652   -45.6645    -2.2752 N.am       1          -0.5311
     16 C13        14.5495   -45.9493    -1.3368 C.2        1           0.6591
     17 O1         14.7622   -46.5080    -0.2759 O.2        1          -0.5520
     18 H1          9.1551   -44.0810    -0.7477 H          1           0.1412
     19 H2         11.2986   -43.8490    -1.9344 H          1           0.1384
     20 H3         12.6866   -47.4621    -0.1173 H          1           0.1631
     21 H4         10.5432   -47.6821     1.0722 H          1           0.1407
     22 H5         12.7742   -44.4437    -3.6192 H          1           0.1865
     23 H6         14.9470   -44.6489    -5.4205 H          1           0.0937
     24 H7         15.6891   -43.3739    -4.4179 H          1           0.0900
     25 H8         16.7424   -46.2000    -4.9042 H          1           0.0712
     26 H9         17.5047   -44.6653    -5.3910 H          1           0.0809
     27 H10        18.6419   -45.4026    -3.3912 H          1           0.0904
     28 H11        17.5857   -44.0522    -2.9126 H          1           0.0755
     29 H12        17.0316   -47.0341    -2.5635 H          1           0.0801
     30 H13        17.3054   -45.8314    -1.2758 H          1           0.0903
@<TRIPOS>BOND
     1    1    2 1
     2    2    7 ar
     3    2    3 ar
     4    3    4 ar
     5    3   18 1
     6    4    5 ar
     7    4   19 1
     8    5    6 ar
     9    5    8 1
    10    6    7 ar
    11    6   20 1
    12    7   21 1
    13    8   16 am
    14    8    9 1
    15    9   10 2
    16    9   22 1
    17   10   15 1
    18   10   11 1
    19   11   12 1
    20   11   23 1
    21   11   24 1
    22   12   13 1
    23   12   25 1
    24   12   26 1
    25   13   14 1
    26   13   27 1
    27   13   28 1
    28   14   15 1
    29   14   29 1
    30   14   30 1
    31   15   16 am
    32   16   17 2
