@<TRIPOS>MOLECULE
AVX17558_3_3
   53    56     0     0     0
SMALL
USER_CHARGES

@<TRIPOS>ATOM
      1 C1        8.6047  -25.1127   -1.0888 C.ar      1 <0>        -0.1412
      2 C2        7.9610  -25.6113    0.0554 C.ar      1 <0>        -0.1292
      3 C3        8.1112  -23.9859   -1.7505 C.ar      1 <0>        -0.1276
      4 C4        6.8129  -24.9918    0.5532 C.ar      1 <0>        -0.0956
      5 C5        3.5884  -24.3915    2.2069 C.ar      1 <0>        -0.1523
      6 C6        3.1357  -25.2210    3.2367 C.ar      1 <0>        -0.1528
      7 C7        2.6111  -25.8645    0.5331 C.ar      1 <0>        -0.0682
      8 C8        6.9793  -23.3703   -1.2432 C.ar      1 <0>        -0.1115
      9 C9        6.3315  -23.8711   -0.1058 C.ar      1 <0>        -0.0787
     10 C10       3.3276  -24.7113    0.8629 C.ar      1 <0>        -0.0845
     11 C11       2.4306  -26.3537    2.8842 C.ar      1 <0>         0.0431
     12 C12       2.1752  -26.6667    1.5686 C.ar      1 <0>         0.0696
     13 C13       2.3254  -26.2205   -0.8663 C.2       1 <0>         0.9180
     14 C14       3.2970  -20.6152   -0.0092 C.2       1 <0>         0.6615
     15 C15       6.2591  -22.1787   -1.7912 C.3       1 <0>        -0.0537
     16 C16       1.3051  -28.2013    2.8235 C.3       1 <0>         0.3177
     17 C17       5.1077  -23.0580    0.2239 C.3       1 <0>        -0.0349
     18 C18       5.4192  -21.7592   -0.5691 C.3       1 <0>         0.1016
     19 C19       3.8370  -23.7853   -0.2106 C.3       1 <0>        -0.0189
     20 C20       2.1907  -19.8064   -0.6632 C.3       1 <0>        -0.1714
     21 C21       2.5565  -18.3316   -0.8155 C.3       1 <0>        -0.1034
     22 C22       3.6859  -18.1484   -1.8178 C.3       1 <0>         0.0992
     23 N1        4.2644  -20.9855   -0.9287 N.am      1 <0>        -0.5287
     24 N2        4.1328  -16.7344   -1.7948 N.4       1 <0>        -0.8390
     25 O1        1.2841  -25.7183   -1.4332 O.co2     1 <0>        -0.8058
     26 O2        3.1261  -27.0225   -1.4775 O.co2     1 <0>        -0.8078
     27 O3        3.3099  -20.8950    1.1866 O.2       1 <0>        -0.6261
     28 O4        1.9139  -27.2734    3.7446 O.3       1 <0>        -0.3558
     29 O5        1.4667  -27.8219    1.4409 O.3       1 <0>        -0.3066
     30 H1        9.4993  -25.6064   -1.4590 H         1 <0>         0.1227
     31 H2        8.3662  -26.4829    0.5622 H         1 <0>         0.1322
     32 H3        8.6069  -23.6068   -2.6383 H         1 <0>         0.1225
     33 H4        6.3223  -25.3830    1.4376 H         1 <0>         0.1686
     34 H5        4.1471  -23.4922    2.4558 H         1 <0>         0.0966
     35 H6        3.3347  -24.9781    4.2742 H         1 <0>         0.1256
     36 H7        6.9863  -21.4030   -2.0516 H         1 <0>         0.0728
     37 H8        5.6462  -22.4281   -2.6612 H         1 <0>         0.0450
     38 H9        1.7556  -29.1894    2.9723 H         1 <0>         0.0582
     39 H10       0.2340  -28.2659    3.0477 H         1 <0>         0.0574
     40 H11       5.0926  -22.8746    1.2699 H         1 <0>         0.1302
     41 H12       6.0296  -21.0648    0.0795 H         1 <0>         0.0956
     42 H13       4.0324  -24.3532   -1.1275 H         1 <0>         0.1039
     43 H14       3.0623  -23.0530   -0.4663 H         1 <0>         0.0102
     44 H15       1.2863  -19.9065   -0.0509 H         1 <0>         0.0769
     45 H16       1.9826  -20.2435   -1.6469 H         1 <0>         0.0680
     46 H17       2.8520  -17.9226    0.1589 H         1 <0>         0.0856
     47 H18       1.6745  -17.7642   -1.1388 H         1 <0>         0.0944
     48 H19       4.5574  -18.7608   -1.5693 H         1 <0>         0.1076
     49 H20       3.3650  -18.3623   -2.8413 H         1 <0>         0.1127
     50 H21       4.1496  -20.7387   -1.9055 H         1 <0>         0.3191
     51 H22       4.9234  -16.5876   -2.4316 H         1 <0>         0.4564
     52 H23       4.4316  -16.4599   -0.8526 H         1 <0>         0.4593
     53 H24       3.3758  -16.1046   -2.0819 H         1 <0>         0.4617
@<TRIPOS>BOND
     1    1    2 ar
     2    1    3 ar
     3    2    4 ar
     4    3    8 ar
     5    4    9 ar
     6    5    6 ar
     7    5   10 ar
     8    6   11 ar
     9    7   10 ar
    10    7   12 ar
    11    7   13 1
    12    8    9 ar
    13    8   15 1
    14    9   17 1
    15   10   19 1
    16   11   12 ar
    17   11   28 1
    18   12   29 1
    19   13   25 1
    20   13   26 2
    21   14   20 1
    22   14   23 am
    23   14   27 2
    24   15   18 1
    25   16   28 1
    26   16   29 1
    27   17   18 1
    28   17   19 1
    29   18   23 1
    30   20   21 1
    31   21   22 1
    32   22   24 1
    33    1   30 1
    34    2   31 1
    35    3   32 1
    36    4   33 1
    37    5   34 1
    38    6   35 1
    39   15   36 1
    40   15   37 1
    41   16   38 1
    42   16   39 1
    43   17   40 1
    44   18   41 1
    45   19   42 1
    46   19   43 1
    47   20   44 1
    48   20   45 1
    49   21   46 1
    50   21   47 1
    51   22   48 1
    52   22   49 1
    53   23   50 1
    54   24   51 1
    55   24   52 1
    56   24   53 1
