@<TRIPOS>MOLECULE
AVX17557_3_3
   59    62     0     0     0
SMALL
USER_CHARGES

@<TRIPOS>ATOM
      1 C1       -3.3385  -25.0397   -4.3676 C.ar      1 <0>        -0.1428
      2 C2       -2.7975  -25.6207   -3.2061 C.ar      1 <0>        -0.1318
      3 C3       -2.5131  -24.4004   -5.2954 C.ar      1 <0>        -0.1286
      4 C4       -1.4229  -25.5715   -2.9553 C.ar      1 <0>        -0.0980
      5 C5        2.2002  -26.9605   -2.5326 C.ar      1 <0>        -0.1503
      6 C6        2.4523  -28.1885   -1.9123 C.ar      1 <0>        -0.1526
      7 C7        1.6079  -25.9584   -0.3917 C.ar      1 <0>        -0.0674
      8 C8       -1.1534  -24.3447   -5.0323 C.ar      1 <0>        -0.1075
      9 C9       -0.6089  -24.9242   -3.8727 C.ar      1 <0>        -0.0764
     10 C10       1.7806  -25.8518   -1.7767 C.ar      1 <0>        -0.0833
     11 C11       2.2308  -28.2735   -0.5393 C.ar      1 <0>         0.0404
     12 C12       1.8634  -27.1820    0.1964 C.ar      1 <0>         0.0673
     13 C13       1.1695  -24.8119    0.4209 C.2       1 <0>         0.9183
     14 C14       2.1645  -21.6396   -3.7832 C.2       1 <0>         0.6587
     15 C15      -0.0812  -23.7405   -5.8902 C.3       1 <0>        -0.0557
     16 C16       2.1368  -28.8630    1.5371 C.3       1 <0>         0.3182
     17 C17       0.8897  -24.7695   -3.8634 C.3       1 <0>        -0.0343
     18 C18       1.0742  -23.5907   -4.8689 C.3       1 <0>         0.1047
     19 C19       1.5218  -24.5501   -2.4921 C.3       1 <0>        -0.0179
     20 C20       1.8136  -20.3025   -3.1513 C.3       1 <0>        -0.1643
     21 C21       2.3582  -20.1306   -1.7302 C.3       1 <0>        -0.0702
     22 C22       3.8896  -20.0590   -1.6943 C.3       1 <0>        -0.0934
     23 C23       4.3975  -18.7995   -2.4043 C.3       1 <0>        -0.1205
     24 C24       3.7657  -17.5142   -1.8846 C.3       1 <0>         0.1074
     25 N1        1.0334  -22.2964   -4.2482 N.am      1 <0>        -0.5441
     26 N2        4.1606  -16.3590   -2.7252 N.4       1 <0>        -0.8422
     27 O1        2.0574  -24.1209    1.0482 O.co2     1 <0>        -0.8119
     28 O2       -0.0875  -24.5381    0.4781 O.co2     1 <0>        -0.8053
     29 O3        3.3119  -22.0743   -3.8441 O.2       1 <0>        -0.6199
     30 O4        2.5031  -29.3685    0.2254 O.3       1 <0>        -0.3575
     31 O5        1.7511  -27.4728    1.5242 O.3       1 <0>        -0.3079
     32 H1       -4.4093  -25.0940   -4.5479 H         1 <0>         0.1204
     33 H2       -3.4547  -26.1212   -2.4991 H         1 <0>         0.1295
     34 H3       -2.9311  -23.9608   -6.1978 H         1 <0>         0.1220
     35 H4       -1.0132  -26.0379   -2.0625 H         1 <0>         0.1664
     36 H5        2.3323  -26.8699   -3.6104 H         1 <0>         0.1036
     37 H6        2.7761  -29.0458   -2.4913 H         1 <0>         0.1259
     38 H7        0.1804  -24.4423   -6.6900 H         1 <0>         0.0700
     39 H8       -0.3871  -22.7807   -6.3216 H         1 <0>         0.0481
     40 H9        1.3082  -29.4544    1.9436 H         1 <0>         0.0570
     41 H10       3.0079  -28.9815    2.1949 H         1 <0>         0.0545
     42 H11       1.3128  -25.6830   -4.3062 H         1 <0>         0.1256
     43 H12       2.0816  -23.6233   -5.3780 H         1 <0>         0.0937
     44 H13       0.8673  -23.9170   -1.8815 H         1 <0>         0.1000
     45 H14       2.4615  -23.9966   -2.6035 H         1 <0>         0.0120
     46 H15       2.1704  -19.4908   -3.7974 H         1 <0>         0.0579
     47 H16       0.7182  -20.2416   -3.1221 H         1 <0>         0.0607
     48 H17       1.9511  -19.2005   -1.3151 H         1 <0>         0.0710
     49 H18       2.0095  -20.9471   -1.0857 H         1 <0>         0.0747
     50 H19       4.3080  -20.9476   -2.1824 H         1 <0>         0.0184
     51 H20       4.2367  -20.0691   -0.6534 H         1 <0>         0.0554
     52 H21       5.4834  -18.7261   -2.2634 H         1 <0>         0.0787
     53 H22       4.2226  -18.8880   -3.4860 H         1 <0>         0.1114
     54 H23       2.6723  -17.5582   -1.8940 H         1 <0>         0.1057
     55 H24       4.1128  -17.2946   -0.8681 H         1 <0>         0.1101
     56 H25       0.1321  -21.8392   -4.1445 H         1 <0>         0.3126
     57 H26       4.5786  -16.6712   -3.6093 H         1 <0>         0.4672
     58 H27       4.8495  -15.7715   -2.2400 H         1 <0>         0.4597
     59 H28       3.3485  -15.7724   -2.9531 H         1 <0>         0.4569
@<TRIPOS>BOND
     1    1    2 ar
     2    1    3 ar
     3    2    4 ar
     4    3    8 ar
     5    4    9 ar
     6    5    6 ar
     7    5   10 ar
     8    6   11 ar
     9    7   10 ar
    10    7   12 ar
    11    7   13 1
    12    8    9 ar
    13    8   15 1
    14    9   17 1
    15   10   19 1
    16   11   12 ar
    17   11   30 1
    18   12   31 1
    19   13   27 1
    20   13   28 2
    21   14   20 1
    22   14   25 am
    23   14   29 2
    24   15   18 1
    25   16   30 1
    26   16   31 1
    27   17   18 1
    28   17   19 1
    29   18   25 1
    30   20   21 1
    31   21   22 1
    32   22   23 1
    33   23   24 1
    34   24   26 1
    35    1   32 1
    36    2   33 1
    37    3   34 1
    38    4   35 1
    39    5   36 1
    40    6   37 1
    41   15   38 1
    42   15   39 1
    43   16   40 1
    44   16   41 1
    45   17   42 1
    46   18   43 1
    47   19   44 1
    48   19   45 1
    49   20   46 1
    50   20   47 1
    51   21   48 1
    52   21   49 1
    53   22   50 1
    54   22   51 1
    55   23   52 1
    56   23   53 1
    57   24   54 1
    58   24   55 1
    59   25   56 1
    60   26   57 1
    61   26   58 1
    62   26   59 1
