@<TRIPOS>MOLECULE
AVX17286_0_1
   33    36     0     0     0
SMALL
USER_CHARGES

@<TRIPOS>ATOM
      1 C1        9.6985  -41.4403   -1.0690 C.ar      1 <0>        -0.1599
      2 C2        8.5854  -40.9288   -0.3761 C.ar      1 <0>        -0.1121
      3 C3       10.2065  -42.7115   -0.7769 C.ar      1 <0>        -0.0508
      4 C4       11.3335  -45.0907   -1.8401 C.ar      1 <0>        -0.1342
      5 C5        7.9582  -41.6780    0.6223 C.ar      1 <0>        -0.1770
      6 C6       12.2647  -44.8827   -2.8606 C.ar      1 <0>        -0.1505
      7 C7        9.5806  -43.4470    0.2125 C.ar      1 <0>        -0.0692
      8 C8       11.7550  -45.4600   -0.5497 C.ar      1 <0>        -0.0910
      9 C9       13.1125  -45.6257   -0.2651 C.ar      1 <0>        -0.0561
     10 C10       8.4758  -42.9297    0.8947 C.ar      1 <0>         0.0395
     11 C11      13.5990  -45.0528   -2.5534 C.ar      1 <0>         0.0398
     12 C12      14.0116  -45.4142   -1.2905 C.ar      1 <0>         0.0579
     13 C13       9.8133  -44.7716    0.7807 C.2       1 <0>        -0.1352
     14 C14       8.7811  -45.0145    1.8437 C.2       1 <0>         0.7028
     15 C15      10.7557  -45.6601    0.4598 C.2       1 <0>         0.0496
     16 C16      13.5901  -46.0125    1.0753 C.2       1 <0>         0.9231
     17 C17      15.7577  -45.1969   -2.5497 C.3       1 <0>         0.3177
     18 N1        8.0114  -43.8465    1.8457 N.am      1 <0>        -0.4700
     19 O1       14.8556  -45.9983    1.3082 O.co2     1 <0>        -0.7998
     20 O2        8.6635  -46.0120    2.5327 O.2       1 <0>        -0.6172
     21 O3       12.7251  -46.3512    1.9659 O.co2     1 <0>        -0.8046
     22 O4       14.6422  -44.8941   -3.4128 O.3       1 <0>        -0.3570
     23 O5       15.3646  -45.5274   -1.2012 O.3       1 <0>        -0.3078
     24 H1       10.1692  -40.8375   -1.8422 H         1 <0>         0.1275
     25 H2        8.2110  -39.9382   -0.6230 H         1 <0>         0.1127
     26 H3       11.0646  -43.0954   -1.3173 H         1 <0>         0.1607
     27 H4       10.2760  -44.9621   -2.0613 H         1 <0>         0.1240
     28 H5        7.1010  -41.2852    1.1565 H         1 <0>         0.1234
     29 H6       11.9444  -44.5976   -3.8567 H         1 <0>         0.1338
     30 H7       10.7483  -46.6164    0.9842 H         1 <0>         0.1585
     31 H8       16.3076  -46.0460   -2.9716 H         1 <0>         0.0525
     32 H9       16.4233  -44.3269   -2.5182 H         1 <0>         0.0520
     33 H10       7.2197  -43.6848    2.4570 H         1 <0>         0.3169
@<TRIPOS>BOND
     1    1    2 ar
     2    1    3 ar
     3    2    5 ar
     4    3    7 ar
     5    4    6 ar
     6    4    8 ar
     7    5   10 ar
     8    6   11 ar
     9    7   10 ar
    10    7   13 1
    11    8    9 ar
    12    8   15 1
    13    9   12 ar
    14    9   16 1
    15   10   18 1
    16   11   12 ar
    17   11   22 1
    18   12   23 1
    19   13   14 1
    20   13   15 2
    21   14   18 am
    22   14   20 2
    23   16   19 1
    24   16   21 2
    25   17   22 1
    26   17   23 1
    27    1   24 1
    28    2   25 1
    29    3   26 1
    30    4   27 1
    31    5   28 1
    32    6   29 1
    33   15   30 1
    34   17   31 1
    35   17   32 1
    36   18   33 1
