@<TRIPOS>MOLECULE
AVX17542_0_9
   57    58     0     0     0
SMALL
USER_CHARGES

@<TRIPOS>ATOM
      1 C1       11.5338  -44.2069   -1.5669 C.ar      1 <0>        -0.1468
      2 C2       12.4289  -44.2628   -2.6392 C.ar      1 <0>        -0.1457
      3 C3       12.9692  -45.6646   -0.2425 C.ar      1 <0>        -0.0710
      4 C4       11.8024  -44.9037   -0.3753 C.ar      1 <0>        -0.0777
      5 C5       13.5737  -45.0211   -2.4821 C.ar      1 <0>         0.0365
      6 C6       13.8366  -45.7032   -1.3159 C.ar      1 <0>         0.0659
      7 C7       13.2724  -46.4026    0.9948 C.2       1 <0>         0.9203
      8 C8        9.2603  -48.6342    2.5475 C.2       1 <0>         0.6530
      9 C9       15.4642  -46.0586   -2.7002 C.3       1 <0>         0.3178
     10 C10       7.6097  -43.2415   -0.7317 C.3       1 <0>        -0.0873
     11 C11       6.7622  -42.7825    1.5765 C.3       1 <0>        -0.0893
     12 C12      10.8032  -44.8116    0.7549 C.3       1 <0>        -0.0331
     13 C13       8.9569  -48.7007    4.0354 C.3       1 <0>        -0.1687
     14 C14       9.5572  -49.9201    4.7327 C.3       1 <0>        -0.0702
     15 C15      11.0932  -49.9115    4.7070 C.3       1 <0>        -0.1127
     16 C16       8.2822  -44.7496    1.2139 C.3       1 <0>        -0.0690
     17 C17       9.4725  -46.9751    0.7000 C.3       1 <0>         0.0690
     18 C18      11.6512  -48.6899    5.4344 C.3       1 <0>         0.1025
     19 C19       7.9444  -43.3144    0.7591 C.3       1 <0>        -0.0711
     20 C20       9.4213  -45.4577    0.4371 C.3       1 <0>        -0.0761
     21 N1        9.2049  -47.3286    2.0670 N.am      1 <0>        -0.5370
     22 N2       11.0711  -48.6290    6.7973 N.4       1 <0>        -0.8412
     23 O1       14.0527  -45.8572    1.8690 O.co2     1 <0>        -0.7954
     24 O2       12.7478  -47.5696    1.1623 O.co2     1 <0>        -0.8406
     25 O3        9.5395  -49.6224    1.8726 O.2       1 <0>        -0.6136
     26 O4       14.5545  -45.1919   -3.4116 O.3       1 <0>        -0.3552
     27 O5       15.0150  -46.3865   -1.3694 O.3       1 <0>        -0.3125
     28 H1       10.6232  -43.6169   -1.6629 H         1 <0>         0.1157
     29 H2       12.2257  -43.7270   -3.5595 H         1 <0>         0.1285
     30 H3       15.5779  -46.9880   -3.2712 H         1 <0>         0.0502
     31 H4       16.4453  -45.5622   -2.6291 H         1 <0>         0.0566
     32 H5        6.7543  -43.8875   -0.9824 H         1 <0>         0.0160
     33 H6        7.3560  -42.2158   -1.0216 H         1 <0>         0.0275
     34 H7        8.4628  -43.5472   -1.3459 H         1 <0>         0.0425
     35 H8        5.8660  -43.4027    1.4208 H         1 <0>         0.0169
     36 H9        6.5147  -41.7579    1.2788 H         1 <0>         0.0295
     37 H10       6.9914  -42.7772    2.6481 H         1 <0>         0.0394
     38 H11      10.6731  -43.7454    0.9886 H         1 <0>         0.0392
     39 H12      11.2308  -45.2604    1.6615 H         1 <0>         0.1012
     40 H13       7.8674  -48.6755    4.1841 H         1 <0>         0.0564
     41 H14       9.3796  -47.7912    4.4891 H         1 <0>         0.0612
     42 H15       9.2039  -49.9786    5.7688 H         1 <0>         0.0744
     43 H16       9.1941  -50.8242    4.2199 H         1 <0>         0.0825
     44 H17      11.4714  -50.8261    5.1804 H         1 <0>         0.0651
     45 H18      11.4505  -49.9176    3.6707 H         1 <0>         0.0619
     46 H19       8.5407  -44.7270    2.2814 H         1 <0>         0.0551
     47 H20       7.3644  -45.3570    1.1363 H         1 <0>         0.0069
     48 H21       8.7288  -47.4994    0.0806 H         1 <0>         0.0957
     49 H22      10.4541  -47.3871    0.4422 H         1 <0>         0.1124
     50 H23      11.3799  -47.7569    4.9323 H         1 <0>         0.1181
     51 H24      12.7407  -48.7400    5.5568 H         1 <0>         0.1157
     52 H25       8.8032  -42.6536    0.9585 H         1 <0>         0.0668
     53 H26       9.2297  -45.3317   -0.6364 H         1 <0>         0.0425
     54 H27       8.9489  -46.5807    2.7116 H         1 <0>         0.2991
     55 H28      10.0469  -48.7266    6.7641 H         1 <0>         0.4577
     56 H29      11.2937  -47.7336    7.2526 H         1 <0>         0.4578
     57 H30      11.4416  -49.3810    7.3888 H         1 <0>         0.4568
@<TRIPOS>BOND
     1    1    2 ar
     2    1    4 ar
     3    2    5 ar
     4    3    4 ar
     5    3    6 ar
     6    3    7 1
     7    4   12 1
     8    5    6 ar
     9    5   26 1
    10    6   27 1
    11    7   23 1
    12    7   24 2
    13    8   13 1
    14    8   21 am
    15    8   25 2
    16    9   26 1
    17    9   27 1
    18   10   19 1
    19   11   19 1
    20   12   20 1
    21   13   14 1
    22   14   15 1
    23   15   18 1
    24   16   19 1
    25   16   20 1
    26   17   20 1
    27   17   21 1
    28   18   22 1
    29    1   28 1
    30    2   29 1
    31    9   30 1
    32    9   31 1
    33   10   32 1
    34   10   33 1
    35   10   34 1
    36   11   35 1
    37   11   36 1
    38   11   37 1
    39   12   38 1
    40   12   39 1
    41   13   40 1
    42   13   41 1
    43   14   42 1
    44   14   43 1
    45   15   44 1
    46   15   45 1
    47   16   46 1
    48   16   47 1
    49   17   48 1
    50   17   49 1
    51   18   50 1
    52   18   51 1
    53   19   52 1
    54   20   53 1
    55   21   54 1
    56   22   55 1
    57   22   56 1
    58   22   57 1
