@<TRIPOS>MOLECULE
AVX17260_0_1
   35    38     0     0     0
SMALL
USER_CHARGES

@<TRIPOS>ATOM
      1 C1        7.0652  -44.2844    0.2689 C.ar      1 <0>        -0.1703
      2 C2        6.9760  -42.9068    0.5518 C.ar      1 <0>        -0.1101
      3 C3        8.1604  -44.8076   -0.4315 C.ar      1 <0>        -0.0628
      4 C4       12.8139  -45.0031   -2.9467 C.ar      1 <0>        -0.1223
      5 C5        7.9792  -42.0286    0.1387 C.ar      1 <0>        -0.1900
      6 C6       14.0557  -45.0168   -3.5906 C.ar      1 <0>        -0.1454
      7 C7       13.8750  -45.3801   -0.7840 C.ar      1 <0>        -0.0661
      8 C8        9.1525  -43.9330   -0.8341 C.ar      1 <0>        -0.1255
      9 C9       12.7241  -45.1836   -1.5516 C.ar      1 <0>        -0.0890
     10 C10       9.0489  -42.5706   -0.5505 C.ar      1 <0>         0.0533
     11 C11      15.1767  -45.2128   -2.8098 C.ar      1 <0>         0.0388
     12 C12      15.0887  -45.3894   -1.4441 C.ar      1 <0>         0.0564
     13 C13      11.0412  -42.7857   -1.6900 C.2       1 <0>         0.7001
     14 C14      13.8063  -45.5712    0.6777 C.2       1 <0>         0.9192
     15 C15      17.1738  -45.4801   -2.0213 C.3       1 <0>         0.3196
     16 C16      10.4200  -44.1939   -1.6015 C.3       1 <0>        -0.0724
     17 C17      11.3614  -45.1607   -0.9042 C.3       1 <0>        -0.0096
     18 N1       10.1579  -41.9010   -1.0549 N.am      1 <0>        -0.4991
     19 O1       14.9043  -45.6099    1.3499 O.co2     1 <0>        -0.8123
     20 O2       12.1076  -42.5122   -2.2211 O.2       1 <0>        -0.6129
     21 O3       12.6507  -45.6939    1.2364 O.co2     1 <0>        -0.8247
     22 O4       16.4622  -45.2557   -3.2577 O.3       1 <0>        -0.3593
     23 O5       16.3082  -45.5654   -0.8662 O.3       1 <0>        -0.3154
     24 H1        6.2710  -44.9492    0.5983 H         1 <0>         0.1272
     25 H2        6.1149  -42.5242    1.0972 H         1 <0>         0.1155
     26 H3        8.2216  -45.8695   -0.6506 H         1 <0>         0.1752
     27 H4       11.9136  -44.8508   -3.5375 H         1 <0>         0.1273
     28 H5        7.9129  -40.9668    0.3545 H         1 <0>         0.1241
     29 H6       14.1295  -44.8780   -4.6660 H         1 <0>         0.1312
     30 H7       17.7388  -46.4164   -2.1108 H         1 <0>         0.0494
     31 H8       17.8795  -44.6552   -1.8675 H         1 <0>         0.0483
     32 H9       10.1811  -44.5297   -2.6208 H         1 <0>         0.1450
     33 H10      10.9333  -46.1713   -0.9169 H         1 <0>         0.0980
     34 H11      11.4586  -44.8858    0.1578 H         1 <0>         0.0346
     35 H12      10.3073  -40.9013   -0.9731 H         1 <0>         0.3240
@<TRIPOS>BOND
     1    1    2 ar
     2    1    3 ar
     3    2    5 ar
     4    3    8 ar
     5    4    6 ar
     6    4    9 ar
     7    5   10 ar
     8    6   11 ar
     9    7    9 ar
    10    7   12 ar
    11    7   14 1
    12    8   10 ar
    13    8   16 1
    14    9   17 1
    15   10   18 1
    16   11   12 ar
    17   11   22 1
    18   12   23 1
    19   13   16 1
    20   13   18 am
    21   13   20 2
    22   14   19 1
    23   14   21 2
    24   15   22 1
    25   15   23 1
    26   16   17 1
    27    1   24 1
    28    2   25 1
    29    3   26 1
    30    4   27 1
    31    5   28 1
    32    6   29 1
    33   15   30 1
    34   15   31 1
    35   16   32 1
    36   17   33 1
    37   17   34 1
    38   18   35 1
