@<TRIPOS>MOLECULE
AVX17377_0_9
   35    38     0     0     0
SMALL
USER_CHARGES

@<TRIPOS>ATOM
      1 C1        8.5812  -41.0381   -0.5067 C.ar      1 <0>        -0.1893
      2 C2        9.5575  -41.2220   -1.5016 C.ar      1 <0>        -0.0953
      3 C3        8.4747  -41.9298    0.5635 C.ar      1 <0>        -0.0837
      4 C4       11.2573  -47.0893   -1.3758 C.ar      1 <0>        -0.1354
      5 C5       10.4437  -42.3002   -1.4430 C.ar      1 <0>        -0.1827
      6 C6       11.3267  -48.4841   -1.3350 C.ar      1 <0>        -0.1537
      7 C7       13.3954  -46.9038   -0.2211 C.ar      1 <0>        -0.0405
      8 C8        9.3559  -42.9940    0.6126 C.ar      1 <0>        -0.1561
      9 C9       12.2857  -46.3037   -0.8222 C.ar      1 <0>        -0.1101
     10 C10      10.3229  -43.1727   -0.3761 C.ar      1 <0>         0.0890
     11 C11      12.4330  -49.0517   -0.7358 C.ar      1 <0>         0.0431
     12 C12      13.4396  -48.2828   -0.1940 C.ar      1 <0>         0.0569
     13 C13      10.6291  -44.9253    1.1007 C.2       1 <0>         0.6871
     14 C14      14.4845  -46.1027    0.3651 C.2       1 <0>         0.9161
     15 C15       9.4643  -44.0837    1.6300 C.3       1 <0>        -0.1170
     16 C16      13.9424  -50.3690    0.0823 C.3       1 <0>         0.3193
     17 C17      12.1646  -44.8087   -0.8910 C.3       1 <0>         0.1533
     18 N1       11.0742  -44.3179   -0.0819 N.am      1 <0>        -0.3716
     19 O1       15.4007  -45.6378   -0.4118 O.co2     1 <0>        -0.8239
     20 O2       11.0591  -45.9329    1.6422 O.2       1 <0>        -0.5245
     21 O3       14.4855  -45.8934    1.6358 O.co2     1 <0>        -0.7855
     22 O4       12.6348  -50.3865   -0.5735 O.3       1 <0>        -0.3601
     23 O5       14.4353  -49.0382    0.3452 O.3       1 <0>        -0.3114
     24 H1        7.9030  -40.1915   -0.5719 H         1 <0>         0.1177
     25 H2        9.6221  -40.5158   -2.3251 H         1 <0>         0.1213
     26 H3        7.7216  -41.7857    1.3304 H         1 <0>         0.1249
     27 H4       10.3964  -46.6148   -1.8419 H         1 <0>         0.1165
     28 H5       11.1933  -42.4348   -2.2145 H         1 <0>         0.1419
     29 H6       10.5360  -49.0935   -1.7608 H         1 <0>         0.1300
     30 H7        9.7207  -43.6857    2.6155 H         1 <0>         0.0826
     31 H8        8.5564  -44.6937    1.6612 H         1 <0>         0.0806
     32 H9       13.8314  -50.8973    1.0359 H         1 <0>         0.0511
     33 H10      14.6786  -50.9009   -0.5311 H         1 <0>         0.0482
     34 H11      13.0872  -44.3291   -0.5421 H         1 <0>         0.1152
     35 H12      11.9937  -44.4755   -1.9200 H         1 <0>         0.0462
@<TRIPOS>BOND
     1    1    2 ar
     2    1    3 ar
     3    2    5 ar
     4    3    8 ar
     5    4    6 ar
     6    4    9 ar
     7    5   10 ar
     8    6   11 ar
     9    7    9 ar
    10    7   12 ar
    11    7   14 1
    12    8   10 ar
    13    8   15 1
    14    9   17 1
    15   10   18 1
    16   11   12 ar
    17   11   22 1
    18   12   23 1
    19   13   15 1
    20   13   18 am
    21   13   20 2
    22   14   19 1
    23   14   21 2
    24   16   22 1
    25   16   23 1
    26   17   18 1
    27    1   24 1
    28    2   25 1
    29    3   26 1
    30    4   27 1
    31    5   28 1
    32    6   29 1
    33   15   30 1
    34   15   31 1
    35   16   32 1
    36   16   33 1
    37   17   34 1
    38   17   35 1
