@<TRIPOS>MOLECULE
AVX17389_0_2
   24    25     0     0     0
SMALL
USER_CHARGES

@<TRIPOS>ATOM
      1 C1        9.0341  -22.7247   -2.6247 C.ar      1 <0>        -0.1559
      2 C2        7.7016  -22.5415   -2.2158 C.ar      1 <0>        -0.0870
      3 C3        9.7691  -23.8215   -2.1829 C.ar      1 <0>        -0.1148
      4 C4        7.0904  -23.4551   -1.3534 C.ar      1 <0>        -0.1054
      5 C5        9.1442  -24.7106   -1.3253 C.ar      1 <0>         0.0400
      6 C6        7.8399  -24.5313   -0.9250 C.ar      1 <0>         0.0796
      7 C7        5.7140  -23.2654   -0.9287 C.2       1 <0>         0.6570
      8 C8        4.0319  -24.5484    2.1341 C.2       1 <0>         0.9045
      9 C9        8.5996  -26.3372   -0.0066 C.3       1 <0>         0.3234
     10 C10       3.9907  -23.7985    0.8134 C.3       1 <0>        -0.0442
     11 N1        5.3281  -23.8751    0.2711 N.am      1 <0>        -0.4999
     12 O1        2.9750  -25.1747    2.4293 O.co2     1 <0>        -0.8382
     13 O2        4.9227  -22.6041   -1.6249 O.2       1 <0>        -0.6542
     14 O3        5.1219  -24.4617    2.7671 O.co2     1 <0>        -0.8220
     15 O4        9.7002  -25.8308   -0.7889 O.3       1 <0>        -0.3489
     16 O5        7.4159  -25.5170   -0.0879 O.3       1 <0>        -0.3101
     17 H1        9.4934  -22.0043   -3.2962 H         1 <0>         0.1266
     18 H2        7.1522  -21.6765   -2.5803 H         1 <0>         0.1602
     19 H3       10.7969  -23.9584   -2.4991 H         1 <0>         0.1426
     20 H4        8.3528  -27.3460   -0.3589 H         1 <0>         0.0742
     21 H5        8.9130  -26.3974    1.0420 H         1 <0>         0.0709
     22 H6        3.7005  -22.7542    0.9650 H         1 <0>         0.0274
     23 H7        3.2735  -24.2585    0.1262 H         1 <0>         0.0418
     24 H8        5.9951  -24.4559    0.7684 H         1 <0>         0.3322
@<TRIPOS>BOND
     1    1    2 ar
     2    1    3 ar
     3    2    4 ar
     4    3    5 ar
     5    4    6 ar
     6    4    7 1
     7    5    6 ar
     8    5   15 1
     9    6   16 1
    10    7   11 am
    11    7   13 2
    12    8   10 1
    13    8   12 1
    14    8   14 2
    15    9   15 1
    16    9   16 1
    17   10   11 1
    18    1   17 1
    19    2   18 1
    20    3   19 1
    21    9   20 1
    22    9   21 1
    23   10   22 1
    24   10   23 1
    25   11   24 1
