@<TRIPOS>MOLECULE
AVX17287_0_3
   34    37     0     0     0
SMALL
USER_CHARGES

@<TRIPOS>ATOM
      1 C1        9.7748  -42.0156   -1.8563 C.ar      1 <0>        -0.1623
      2 C2        9.1434  -41.3181   -0.8282 C.ar      1 <0>        -0.1214
      3 C3       10.3054  -43.2918   -1.6356 C.ar      1 <0>        -0.0449
      4 C4       12.5594  -45.3359   -2.4968 C.ar      1 <0>        -0.1528
      5 C5        9.0219  -41.8714    0.4497 C.ar      1 <0>        -0.1612
      6 C6       13.7206  -44.9329   -3.1609 C.ar      1 <0>        -0.1507
      7 C7       10.2161  -45.1148    1.5312 C.2       1 <0>        -0.0434
      8 C8       10.1950  -43.8700   -0.3554 C.ar      1 <0>        -0.0653
      9 C9       13.8301  -45.8070   -0.4733 C.ar      1 <0>        -0.0603
     10 C10      12.6138  -45.7703   -1.1606 C.ar      1 <0>        -0.0646
     11 C11      10.6053  -45.1090    0.2115 C.2       1 <0>        -0.0677
     12 C12       9.5571  -43.1478    0.6557 C.ar      1 <0>         0.0641
     13 C13      14.9207  -45.0207   -2.4631 C.ar      1 <0>         0.0336
     14 C14      14.9619  -45.4037   -1.1519 C.ar      1 <0>         0.0602
     15 C15      13.9124  -46.2578    0.9255 C.2       1 <0>         0.9196
     16 C16      16.9632  -44.8781   -1.7860 C.3       1 <0>         0.3182
     17 C17      11.3213  -46.1992   -0.4818 C.3       1 <0>         0.0251
     18 N1        9.5844  -43.9279    1.7897 N.pl3     1 <0>        -0.5773
     19 O1       15.0622  -46.2698    1.5064 O.co2     1 <0>        -0.8042
     20 O2       12.8318  -46.6255    1.5221 O.co2     1 <0>        -0.8215
     21 O3       16.1239  -44.5948   -2.9358 O.3       1 <0>        -0.3593
     22 O4       16.2263  -45.3712   -0.6484 O.3       1 <0>        -0.3118
     23 H1        9.8580  -41.5646   -2.8413 H         1 <0>         0.1223
     24 H2        8.7383  -40.3282   -1.0216 H         1 <0>         0.1105
     25 H3       10.7946  -43.8230   -2.4474 H         1 <0>         0.1650
     26 H4       11.6089  -45.3105   -3.0252 H         1 <0>         0.1117
     27 H5        8.5305  -41.3271    1.2494 H         1 <0>         0.1154
     28 H6       13.6830  -44.5973   -4.1909 H         1 <0>         0.1271
     29 H7       10.3310  -45.8558    2.3103 H         1 <0>         0.1562
     30 H8       17.7255  -45.6172   -2.0581 H         1 <0>         0.0488
     31 H9       17.4634  -43.9441   -1.5029 H         1 <0>         0.0492
     32 H10      10.6748  -46.6841   -1.2428 H         1 <0>         0.0312
     33 H11      11.5552  -47.0312    0.2135 H         1 <0>         0.0964
     34 H12       9.1941  -43.6618    2.6832 H         1 <0>         0.4142
@<TRIPOS>BOND
     1    1    2 ar
     2    1    3 ar
     3    2    5 ar
     4    3    8 ar
     5    4    6 ar
     6    4   10 ar
     7    5   12 ar
     8    6   13 ar
     9    7   11 2
    10    7   18 1
    11    8   11 1
    12    8   12 ar
    13    9   10 ar
    14    9   14 ar
    15    9   15 1
    16   10   17 1
    17   11   17 1
    18   12   18 1
    19   13   14 ar
    20   13   21 1
    21   14   22 1
    22   15   19 1
    23   15   20 2
    24   16   21 1
    25   16   22 1
    26    1   23 1
    27    2   24 1
    28    3   25 1
    29    4   26 1
    30    5   27 1
    31    6   28 1
    32    7   29 1
    33   16   30 1
    34   16   31 1
    35   17   32 1
    36   17   33 1
    37   18   34 1
