@<TRIPOS>MOLECULE
AVX17285_0_4
   30    32     0     0     0
SMALL
USER_CHARGES

@<TRIPOS>ATOM
      1 C1        8.3065  -25.7880   -0.5344 C.ar      1 <0>        -0.1603
      2 C2        9.4799  -25.4658   -1.2420 C.ar      1 <0>        -0.1076
      3 C3        4.3522  -24.7143    1.8199 C.ar      1 <0>        -0.1652
      4 C4        7.2022  -24.9292   -0.5425 C.ar      1 <0>        -0.0584
      5 C5        5.0249  -23.8112    0.9971 C.ar      1 <0>        -0.1391
      6 C6        3.1065  -25.2144    1.4345 C.ar      1 <0>        -0.0989
      7 C7        9.5721  -24.2790   -1.9713 C.ar      1 <0>        -0.1829
      8 C8        3.2066  -23.9033   -0.5911 C.ar      1 <0>        -0.0866
      9 C9        7.3010  -23.7563   -1.2665 C.ar      1 <0>        -0.0872
     10 C10       4.4521  -23.4057   -0.2084 C.ar      1 <0>        -0.1398
     11 C11       2.5338  -24.8064    0.2318 C.ar      1 <0>        -0.1280
     12 C12       8.4709  -23.4458   -1.9657 C.ar      1 <0>         0.0515
     13 C13       6.3880  -22.6443   -1.5072 C.2       1 <0>        -0.1470
     14 C14       7.0828  -21.6502   -2.3919 C.2       1 <0>         0.7062
     15 C15       5.1444  -22.4767   -1.0537 C.2       1 <0>         0.0431
     16 C16       1.2195  -25.3313   -0.1719 C.2       1 <0>         0.9084
     17 N1        8.3406  -22.2165   -2.6213 N.am      1 <0>        -0.4880
     18 O1        0.7591  -25.0227   -1.3344 O.co2     1 <0>        -0.8244
     19 O2        6.6300  -20.5976   -2.8021 O.2       1 <0>        -0.6287
     20 O3        0.5728  -26.0818    0.6508 O.co2     1 <0>        -0.8264
     21 H1        8.2594  -26.7181    0.0259 H         1 <0>         0.1364
     22 H2       10.3231  -26.1509   -1.2188 H         1 <0>         0.1178
     23 H3        4.7985  -25.0300    2.7585 H         1 <0>         0.1099
     24 H4        6.3033  -25.1877    0.0061 H         1 <0>         0.1702
     25 H5        5.9954  -23.4324    1.3086 H         1 <0>         0.1115
     26 H6        2.5814  -25.9263    2.0658 H         1 <0>         0.1543
     27 H7       10.4750  -24.0298   -2.5166 H         1 <0>         0.1260
     28 H8        2.7553  -23.5900   -1.5306 H         1 <0>         0.1607
     29 H9        4.6077  -21.5824   -1.3703 H         1 <0>         0.1435
     30 H10       9.0643  -21.7916   -3.1889 H         1 <0>         0.3290
@<TRIPOS>BOND
     1    1    2 ar
     2    1    4 ar
     3    2    7 ar
     4    3    5 ar
     5    3    6 ar
     6    4    9 ar
     7    5   10 ar
     8    6   11 ar
     9    7   12 ar
    10    8   10 ar
    11    8   11 ar
    12    9   12 ar
    13    9   13 1
    14   10   15 1
    15   11   16 1
    16   12   17 1
    17   13   14 1
    18   13   15 2
    19   14   17 am
    20   14   19 2
    21   16   18 1
    22   16   20 2
    23    1   21 1
    24    2   22 1
    25    3   23 1
    26    4   24 1
    27    5   25 1
    28    6   26 1
    29    7   27 1
    30    8   28 1
    31   15   29 1
    32   17   30 1
