@<TRIPOS>MOLECULE
AVX17680_0_5
   57    58     0     0     0
SMALL
USER_CHARGES

@<TRIPOS>ATOM
      1 C1        1.2079  -23.3544   -1.7968 C.ar      1 <0>        -0.1603
      2 C2        1.4749  -22.6798   -2.9906 C.ar      1 <0>        -0.1884
      3 C3        1.0417  -25.4796   -2.9848 C.ar      1 <0>        -0.0751
      4 C4        0.9926  -24.7462   -1.7940 C.ar      1 <0>        -0.0436
      5 C5        1.5178  -23.4272   -4.1526 C.ar      1 <0>         0.0305
      6 C6        1.3072  -24.7896   -4.1497 C.ar      1 <0>         0.0703
      7 C7        0.8197  -26.9371   -3.0071 C.2       1 <0>         0.9274
      8 C8        3.8775  -22.6867    0.2854 C.2       1 <0>         0.6372
      9 C9        1.6827  -24.1585   -6.1853 C.3       1 <0>         0.3197
     10 C10       0.3787  -27.7395    3.3520 C.3       1 <0>        -0.0911
     11 C11       0.7073  -25.4292   -0.4773 C.3       1 <0>        -0.0434
     12 C12       4.7694  -22.1414   -0.8183 C.3       1 <0>        -0.1557
     13 C13       0.6260  -26.6216    2.3489 C.3       1 <0>        -0.0882
     14 C14       4.5659  -20.6484   -1.0904 C.3       1 <0>        -0.0590
     15 C15       5.4557  -20.1398   -2.2306 C.3       1 <0>        -0.1121
     16 C16       5.2771  -18.6287   -2.4346 C.3       1 <0>        -0.1084
     17 C17       1.6318  -27.0544    1.2734 C.3       1 <0>        -0.0711
     18 C18       2.7360  -24.7951    0.9700 C.3       1 <0>         0.0896
     19 C19       3.8228  -18.2055   -2.6143 C.3       1 <0>         0.1052
     20 C20       1.9714  -25.9340    0.2614 C.3       1 <0>        -0.0742
     21 N1        3.5843  -24.0303    0.0843 N.am      1 <0>        -0.5267
     22 N2        3.7319  -16.7682   -2.9760 N.4       1 <0>        -0.8432
     23 O1        1.8284  -27.7245   -2.8356 O.co2     1 <0>        -0.7614
     24 O2       -0.3755  -27.3770   -3.1978 O.co2     1 <0>        -0.8425
     25 O3        3.4623  -21.9992    1.2185 O.2       1 <0>        -0.6812
     26 O4        1.7633  -22.9463   -5.4018 O.3       1 <0>        -0.3723
     27 O5        1.3940  -25.3321   -5.3970 O.3       1 <0>        -0.3022
     28 H1        1.1678  -22.7904   -0.8657 H         1 <0>         0.1135
     29 H2        1.6415  -21.6068   -2.9973 H         1 <0>         0.0809
     30 H3        0.8933  -24.0361   -6.9362 H         1 <0>         0.0569
     31 H4        2.6400  -24.3108   -6.7009 H         1 <0>         0.0668
     32 H5        1.3116  -28.0455    3.8387 H         1 <0>         0.0263
     33 H6       -0.3284  -27.4187    4.1269 H         1 <0>         0.0345
     34 H7       -0.0408  -28.6167    2.8471 H         1 <0>         0.0264
     35 H8        0.1299  -24.7574    0.1764 H         1 <0>         0.1012
     36 H9        0.0372  -26.2694   -0.6972 H         1 <0>         0.0414
     37 H10       5.8193  -22.3451   -0.5722 H         1 <0>         0.0633
     38 H11       4.5316  -22.7059   -1.7299 H         1 <0>         0.0812
     39 H12      -0.3260  -26.3406    1.8816 H         1 <0>         0.0550
     40 H13       0.9936  -25.7434    2.8918 H         1 <0>         0.0498
     41 H14       3.5146  -20.4838   -1.3609 H         1 <0>         0.0350
     42 H15       4.7532  -20.0636   -0.1802 H         1 <0>         0.0764
     43 H16       5.2010  -20.6694   -3.1581 H         1 <0>         0.0216
     44 H17       6.5049  -20.3676   -2.0096 H         1 <0>         0.0978
     45 H18       5.6774  -18.0983   -1.5604 H         1 <0>         0.0622
     46 H19       5.8690  -18.3039   -3.2996 H         1 <0>         0.1049
     47 H20       1.2102  -27.9097    0.7271 H         1 <0>         0.0297
     48 H21       2.5491  -27.4153    1.7579 H         1 <0>         0.0380
     49 H22       2.0315  -24.0882    1.4302 H         1 <0>         0.1001
     50 H23       3.3703  -25.1851    1.7727 H         1 <0>         0.0512
     51 H24       3.3254  -18.7715   -3.4084 H         1 <0>         0.0945
     52 H25       3.2643  -18.3235   -1.6804 H         1 <0>         0.1148
     53 H26       2.6638  -26.3631   -0.4797 H         1 <0>         0.0364
     54 H27       3.9854  -24.4995   -0.7252 H         1 <0>         0.3683
     55 H28       4.6476  -16.4026   -3.2604 H         1 <0>         0.4557
     56 H29       3.4006  -16.2048   -2.1816 H         1 <0>         0.4831
     57 H30       3.0798  -16.6248   -3.7553 H         1 <0>         0.4532
@<TRIPOS>BOND
     1    1    2 ar
     2    1    4 ar
     3    2    5 ar
     4    3    4 ar
     5    3    6 ar
     6    3    7 1
     7    4   11 1
     8    5    6 ar
     9    5   26 1
    10    6   27 1
    11    7   23 1
    12    7   24 2
    13    8   12 1
    14    8   21 am
    15    8   25 2
    16    9   26 1
    17    9   27 1
    18   10   13 1
    19   11   20 1
    20   12   14 1
    21   13   17 1
    22   14   15 1
    23   15   16 1
    24   16   19 1
    25   17   20 1
    26   18   20 1
    27   18   21 1
    28   19   22 1
    29    1   28 1
    30    2   29 1
    31    9   30 1
    32    9   31 1
    33   10   32 1
    34   10   33 1
    35   10   34 1
    36   11   35 1
    37   11   36 1
    38   12   37 1
    39   12   38 1
    40   13   39 1
    41   13   40 1
    42   14   41 1
    43   14   42 1
    44   15   43 1
    45   15   44 1
    46   16   45 1
    47   16   46 1
    48   17   47 1
    49   17   48 1
    50   18   49 1
    51   18   50 1
    52   19   51 1
    53   19   52 1
    54   20   53 1
    55   21   54 1
    56   22   55 1
    57   22   56 1
    58   22   57 1
