@<TRIPOS>MOLECULE
AVX15988_0_4
   19    20     0     0     0
SMALL
USER_CHARGES

@<TRIPOS>ATOM
      1 C1        7.1633  -24.9392    0.0523 C.ar      1 <0>        -0.0813
      2 C2        5.9867  -24.3417    0.5124 C.ar      1 <0>        -0.1254
      3 C3        6.2473  -22.5114   -1.0542 C.ar      1 <0>        -0.0204
      4 C4        7.4395  -23.0937   -1.5376 C.ar      1 <0>         0.1242
      5 C5        7.8760  -24.2985   -0.9744 C.ar      1 <0>        -0.0955
      6 C6        5.5328  -23.1437   -0.0323 C.ar      1 <0>         0.0184
      7 C7        9.2720  -23.3858   -2.7304 C.2       1 <0>         0.5754
      8 C8        5.7478  -21.2208   -1.6335 C.3       1 <0>        -0.0551
      9 N1        8.2496  -22.5835   -2.5417 N.2       1 <0>        -0.5971
     10 N2       10.2530  -23.1695   -3.6462 N.pl3     1 <0>        -0.8654
     11 S1        9.3424  -24.7821   -1.7419 S.3       1 <0>        -0.0753
     12 Cl1       4.0688  -22.4641    0.5873 Cl        1 <0>        -0.0943
     13 H1        7.5118  -25.8746    0.4821 H         1 <0>         0.1442
     14 H2        5.4319  -24.8352    1.3078 H         1 <0>         0.1493
     15 H3        5.0833  -21.4239   -2.4793 H         1 <0>         0.0549
     16 H4        5.1997  -20.6395   -0.8833 H         1 <0>         0.0514
     17 H5        6.5802  -20.5970   -1.9783 H         1 <0>         0.0665
     18 H6       10.2233  -22.3698   -4.2892 H         1 <0>         0.4174
     19 H7       11.0102  -23.8467   -3.7939 H         1 <0>         0.4082
@<TRIPOS>BOND
     1    1    2 ar
     2    1    5 ar
     3    2    6 ar
     4    3    4 ar
     5    3    6 ar
     6    3    8 1
     7    4    5 ar
     8    4    9 1
     9    5   11 1
    10    6   12 1
    11    7    9 2
    12    7   10 1
    13    7   11 1
    14    1   13 1
    15    2   14 1
    16    8   15 1
    17    8   16 1
    18    8   17 1
    19   10   18 1
    20   10   19 1
