@<TRIPOS>MOLECULE
AVX17631_0_5
   16    17     0     0     0
SMALL
USER_CHARGES

@<TRIPOS>ATOM
      1 C1        5.9428  -22.3594   -1.2316 C.ar      1 <0>        -0.1581
      2 C2        5.4905  -23.3247   -0.3214 C.ar      1 <0>        -0.0926
      3 C3        7.1741  -22.5037   -1.8863 C.ar      1 <0>        -0.0591
      4 C4        6.2481  -24.4680   -0.0301 C.ar      1 <0>        -0.1241
      5 C5        7.9446  -23.6453   -1.6037 C.ar      1 <0>        -0.2434
      6 C6        7.4643  -24.5787   -0.6973 C.ar      1 <0>         0.0673
      7 C7        9.1837  -24.1838   -2.0023 C.2       1 <0>         0.5500
      8 N1        9.4532  -25.3495   -1.3980 N.2       1 <0>        -0.4587
      9 N2        9.9834  -23.5525   -2.9024 N.pl3     1 <0>        -0.8581
     10 O1        8.3630  -25.5969   -0.5725 O.3       1 <0>        -0.0110
     11 H1        5.3302  -21.4817   -1.4350 H         1 <0>         0.1380
     12 H2        4.5301  -23.1838    0.1685 H         1 <0>         0.1390
     13 H3        7.5112  -21.7465   -2.5910 H         1 <0>         0.1389
     14 H4        5.9068  -25.2203    0.6740 H         1 <0>         0.1580
     15 H5        9.6963  -22.6788   -3.3658 H         1 <0>         0.4032
     16 H6       10.8636  -23.9705   -3.2261 H         1 <0>         0.4108
@<TRIPOS>BOND
     1    1    2 ar
     2    1    3 ar
     3    2    4 ar
     4    3    5 ar
     5    4    6 ar
     6    5    6 ar
     7    5    7 1
     8    6   10 1
     9    7    8 2
    10    7    9 1
    11    8   10 1
    12    1   11 1
    13    2   12 1
    14    3   13 1
    15    4   14 1
    16    9   15 1
    17    9   16 1
