@<TRIPOS>MOLECULE
AVX17587_2_19
   59    62     0     0     0
SMALL
USER_CHARGES

@<TRIPOS>ATOM
      1 C1       -1.9692  -17.8853    2.1847 C.ar      1 <0>        -0.1342
      2 C2       -2.7271  -19.0472    1.9752 C.ar      1 <0>        -0.1336
      3 C3       -0.6441  -17.8144    1.7521 C.ar      1 <0>        -0.1250
      4 C4       -2.1705  -20.1546    1.3309 C.ar      1 <0>        -0.1121
      5 C5        0.4004  -23.2196   -1.6636 C.ar      1 <0>        -0.1704
      6 C6        0.9341  -24.1161   -2.5925 C.ar      1 <0>        -0.1562
      7 C7        0.8615  -24.7668    0.1589 C.ar      1 <0>        -0.0701
      8 C8       -0.0967  -18.9216    1.1246 C.ar      1 <0>        -0.0777
      9 C9       -0.8497  -20.0846    0.9148 C.ar      1 <0>        -0.0761
     10 C10       0.3644  -23.5431   -0.2959 C.ar      1 <0>        -0.0703
     11 C11       1.4183  -25.3176   -2.1174 C.ar      1 <0>         0.0179
     12 C12       1.3833  -25.6342   -0.7787 C.ar      1 <0>         0.0617
     13 C13       0.8350  -25.1277    1.5855 C.2       1 <0>         0.9218
     14 C14       3.4255  -21.7525   -0.4223 C.2       1 <0>         0.6512
     15 C15       1.2791  -19.0573    0.5530 C.3       1 <0>        -0.0363
     16 C16       2.2807  -27.2842   -1.8525 C.3       1 <0>         0.3190
     17 C17      -0.0413  -21.1136    0.1719 C.3       1 <0>        -0.0243
     18 C18       1.3875  -20.5826    0.4218 C.3       1 <0>         0.0717
     19 C19      -0.2210  -22.5433    0.6652 C.3       1 <0>        -0.0370
     20 C20       4.2148  -21.9600   -1.7046 C.3       1 <0>        -0.1654
     21 C21       5.1997  -20.8327   -2.0108 C.3       1 <0>        -0.0755
     22 C22       4.5204  -19.4596   -2.0537 C.3       1 <0>        -0.0921
     23 C23       5.5053  -18.3703   -2.4895 C.3       1 <0>        -0.1198
     24 C24       4.9192  -16.9652   -2.4335 C.3       1 <0>         0.1060
     25 N1        2.3066  -20.9603   -0.6349 N.am      1 <0>        -0.5298
     26 N2        3.6347  -16.9042   -3.1692 N.4       1 <0>        -0.8417
     27 O1        1.8271  -24.7830    2.3305 O.co2     1 <0>        -0.8121
     28 O2       -0.1796  -25.7767    2.0415 O.co2     1 <0>        -0.7861
     29 O3        3.7667  -22.2200    0.6606 O.2       1 <0>        -0.5843
     30 O4        1.9720  -26.3082   -2.8684 O.3       1 <0>        -0.3676
     31 O5        1.9102  -26.8627   -0.5239 O.3       1 <0>        -0.3075
     32 H1       -2.4210  -17.0315    2.6822 H         1 <0>         0.1213
     33 H2       -3.7598  -19.0823    2.3119 H         1 <0>         0.1276
     34 H3       -0.0626  -16.9114    1.9049 H         1 <0>         0.1266
     35 H4       -2.7698  -21.0426    1.1601 H         1 <0>         0.1355
     36 H5        0.0112  -22.2652   -2.0102 H         1 <0>         0.1218
     37 H6        0.9640  -23.8708   -3.6479 H         1 <0>         0.1293
     38 H7        1.3363  -18.5450   -0.4137 H         1 <0>         0.0478
     39 H8        2.0486  -18.6619    1.2233 H         1 <0>         0.0718
     40 H9        1.7500  -28.2142   -2.0870 H         1 <0>         0.0614
     41 H10       3.3590  -27.4800   -1.8709 H         1 <0>         0.0390
     42 H11      -0.2987  -21.0573   -0.8939 H         1 <0>         0.0450
     43 H12       1.7990  -20.9958    1.3497 H         1 <0>         0.1376
     44 H13      -1.2871  -22.7508    0.8124 H         1 <0>         0.0451
     45 H14       0.2494  -22.6551    1.6488 H         1 <0>         0.1126
     46 H15       4.7406  -22.9205   -1.6561 H         1 <0>         0.0814
     47 H16       3.4851  -22.0242   -2.5212 H         1 <0>         0.0437
     48 H17       5.9681  -20.8227   -1.2281 H         1 <0>         0.0683
     49 H18       5.7142  -21.0242   -2.9599 H         1 <0>         0.0850
     50 H19       4.1235  -19.2176   -1.0605 H         1 <0>         0.0064
     51 H20       3.6700  -19.4912   -2.7425 H         1 <0>         0.0623
     52 H21       6.3828  -18.3992   -1.8319 H         1 <0>         0.0749
     53 H22       5.8644  -18.5831   -3.5037 H         1 <0>         0.1167
     54 H23       4.7183  -16.6419   -1.4082 H         1 <0>         0.1036
     55 H24       5.5877  -16.2459   -2.9153 H         1 <0>         0.1122
     56 H25       2.1219  -20.6284   -1.5770 H         1 <0>         0.3015
     57 H26       3.2784  -17.8456   -3.3679 H         1 <0>         0.4614
     58 H27       3.7462  -16.4146   -4.0642 H         1 <0>         0.4624
     59 H28       2.9214  -16.4062   -2.6248 H         1 <0>         0.4540
@<TRIPOS>BOND
     1    1    2 ar
     2    1    3 ar
     3    2    4 ar
     4    3    8 ar
     5    4    9 ar
     6    5    6 ar
     7    5   10 ar
     8    6   11 ar
     9    7   10 ar
    10    7   12 ar
    11    7   13 1
    12    8    9 ar
    13    8   15 1
    14    9   17 1
    15   10   19 1
    16   11   12 ar
    17   11   30 1
    18   12   31 1
    19   13   27 1
    20   13   28 2
    21   14   20 1
    22   14   25 am
    23   14   29 2
    24   15   18 1
    25   16   30 1
    26   16   31 1
    27   17   18 1
    28   17   19 1
    29   18   25 1
    30   20   21 1
    31   21   22 1
    32   22   23 1
    33   23   24 1
    34   24   26 1
    35    1   32 1
    36    2   33 1
    37    3   34 1
    38    4   35 1
    39    5   36 1
    40    6   37 1
    41   15   38 1
    42   15   39 1
    43   16   40 1
    44   16   41 1
    45   17   42 1
    46   18   43 1
    47   19   44 1
    48   19   45 1
    49   20   46 1
    50   20   47 1
    51   21   48 1
    52   21   49 1
    53   22   50 1
    54   22   51 1
    55   23   52 1
    56   23   53 1
    57   24   54 1
    58   24   55 1
    59   25   56 1
    60   26   57 1
    61   26   58 1
    62   26   59 1
