@<TRIPOS>MOLECULE
AVX101140_0_4
   37    40     0     0     0
SMALL
USER_CHARGES

@<TRIPOS>ATOM
      1 C1       10.7363  -43.5961   -1.8706 C.ar      1 <0>        -0.1303
      2 C2       13.4270  -45.2536   -3.0182 C.ar      1 <0>        -0.2022
      3 C3       10.1381  -42.3421   -1.7276 C.ar      1 <0>        -0.1594
      4 C4       14.6451  -44.9530   -3.6392 C.ar      1 <0>        -0.0326
      5 C5       15.8798  -45.3649   -1.5766 C.ar      1 <0>         0.0096
      6 C6       14.6659  -45.6553   -0.9912 C.ar      1 <0>        -0.2704
      7 C7        9.3109  -44.4869   -0.1315 C.ar      1 <0>        -0.0489
      8 C8       10.3274  -44.6653   -1.0700 C.ar      1 <0>        -0.1270
      9 C9       13.4564  -45.6059   -1.6818 C.ar      1 <0>         0.1477
     10 C10       9.0980  -42.1708   -0.8215 C.ar      1 <0>         0.0467
     11 C11       8.7029  -43.2366    0.0030 C.ar      1 <0>         0.0601
     12 C12      15.8590  -45.0082   -2.9255 C.ar      1 <0>        -0.1076
     13 C13      14.3532  -46.0552    0.3780 C.2       1 <0>         0.5177
     14 C14      12.8417  -46.2412    0.4426 C.2       1 <0>         0.5960
     15 C15       8.8907  -45.6179    0.7240 C.2       1 <0>         0.9164
     16 C16       7.8997  -40.7113    0.5457 C.3       1 <0>         0.0909
     17 C17       6.9286  -41.9351    0.7424 C.3       1 <0>         0.0892
     18 C18      11.0038  -45.9973   -1.2380 C.3       1 <0>         0.1522
     19 N1       12.3881  -45.9513   -0.8328 N.am      1 <0>        -0.3670
     20 O1        7.9820  -46.4185    0.2870 O.co2     1 <0>        -0.8260
     21 O2       15.1016  -46.2216    1.3102 O.2       1 <0>        -0.4735
     22 O3       12.2689  -46.5766    1.4566 O.2       1 <0>        -0.4557
     23 O4        9.4495  -45.7578    1.8729 O.co2     1 <0>        -0.7877
     24 O5        8.5947  -40.9027   -0.6496 O.3       1 <0>        -0.3349
     25 O6        7.6970  -43.1287    0.9271 O.3       1 <0>        -0.2794
     26 Br1      17.4799  -44.5933   -3.8091 Br        1 <0>        -0.1100
     27 H1       11.5185  -43.7310   -2.6131 H         1 <0>         0.1125
     28 H2       12.5013  -45.2069   -3.5806 H         1 <0>         0.1542
     29 H3       10.4530  -41.5183   -2.3645 H         1 <0>         0.1283
     30 H4       14.6391  -44.6740   -4.6905 H         1 <0>         0.1400
     31 H5       16.8026  -45.4134   -1.0093 H         1 <0>         0.1548
     32 H6        7.2836  -39.8009    0.4784 H         1 <0>         0.0486
     33 H7        8.5585  -40.6613    1.3640 H         1 <0>         0.0567
     34 H8        6.2791  -41.7985    1.6156 H         1 <0>         0.0505
     35 H9        6.2930  -42.0834   -0.1365 H         1 <0>         0.0700
     36 H10      10.5013  -46.7662   -0.6392 H         1 <0>         0.1211
     37 H11      10.9704  -46.3279   -2.2819 H         1 <0>         0.0494
@<TRIPOS>BOND
     1    1    3 ar
     2    1    8 ar
     3    2    4 ar
     4    2    9 ar
     5    3   10 ar
     6    4   12 ar
     7    5    6 ar
     8    5   12 ar
     9    6    9 ar
    10    6   13 1
    11    7    8 ar
    12    7   11 ar
    13    7   15 1
    14    8   18 1
    15    9   19 1
    16   10   11 ar
    17   10   24 1
    18   11   25 1
    19   12   26 1
    20   13   14 1
    21   13   21 2
    22   14   19 am
    23   14   22 2
    24   15   20 1
    25   15   23 2
    26   16   17 1
    27   16   24 1
    28   17   25 1
    29   18   19 1
    30    1   27 1
    31    2   28 1
    32    3   29 1
    33    4   30 1
    34    5   31 1
    35   16   32 1
    36   16   33 1
    37   17   34 1
    38   17   35 1
    39   18   36 1
    40   18   37 1
