@<TRIPOS>MOLECULE
AVX101122_0_1
   61    63     0     0     0
SMALL
USER_CHARGES

@<TRIPOS>ATOM
      1 C1        9.7485  -48.6184    6.1962 C.ar      1 <0>        -0.1039
      2 C2       10.9950  -48.9980    5.6985 C.ar      1 <0>        -0.1129
      3 C3       10.7459  -43.4945   -0.7106 C.ar      1 <0>        -0.1175
      4 C4        8.7303  -48.2472    5.3166 C.ar      1 <0>        -0.0979
      5 C5       11.2236  -49.0062    4.3211 C.ar      1 <0>        -0.1030
      6 C6       10.6626  -44.4927    0.2600 C.ar      1 <0>        -0.1753
      7 C7        6.9242  -43.5267    2.0760 C.ar      1 <0>        -0.0948
      8 C8        7.2183  -44.9348    0.1288 C.ar      1 <0>        -0.0706
      9 C9       11.8669  -43.4169   -1.5365 C.ar      1 <0>        -0.1985
     10 C10       7.3370  -42.4171    1.3383 C.ar      1 <0>        -0.1653
     11 C11       7.6309  -43.8251   -0.6089 C.ar      1 <0>        -0.2078
     12 C12       8.9589  -48.2554    3.9392 C.ar      1 <0>        -0.1282
     13 C13      12.8214  -45.3357   -0.4215 C.ar      1 <0>        -0.0915
     14 C14       6.8649  -44.7855    1.4713 C.ar      1 <0>        -0.1846
     15 C15      10.2054  -48.6350    3.4415 C.ar      1 <0>        -0.1161
     16 C16      11.7003  -45.4134    0.4046 C.ar      1 <0>        -0.1424
     17 C17       7.6902  -42.5662   -0.0041 C.ar      1 <0>         0.1531
     18 C18      12.9047  -44.3376   -1.3921 C.ar      1 <0>         0.1401
     19 C19       7.8787  -47.8622    3.0432 C.2       1 <0>         0.6606
     20 C20      13.9225  -46.3078   -0.2724 C.2       1 <0>         0.9187
     21 C21       9.8700  -47.4043   -0.1025 C.3       1 <0>         0.0605
     22 C22       8.2798  -40.2594   -0.0076 C.3       1 <0>         0.1059
     23 C23      13.9900  -45.0580   -3.3834 C.3       1 <0>         0.1094
     24 C24       6.4204  -45.9798    2.2654 C.3       1 <0>         0.1465
     25 C25      10.4790  -48.6522    1.9650 C.3       1 <0>         0.1571
     26 C26      11.5833  -46.4760    1.4571 C.3       1 <0>         0.1771
     27 N1        7.4900  -46.5178    3.0758 N.am      1 <0>        -0.5459
     28 N2       10.3321  -47.3008    1.3253 N.4       1 <0>        -0.6801
     29 O1       14.8855  -46.0259    0.5345 O.co2     1 <0>        -0.7681
     30 O2        7.3293  -48.7048    2.3082 O.2       1 <0>        -0.6284
     31 O3       13.8772  -47.3995   -0.9554 O.co2     1 <0>        -0.8476
     32 O4        8.0918  -41.4828   -0.7233 O.3       1 <0>        -0.3200
     33 O5       13.9909  -44.2437   -2.2094 O.3       1 <0>        -0.2868
     34 H1        9.5705  -48.6114    7.2689 H         1 <0>         0.1535
     35 H2       11.7878  -49.2860    6.3839 H         1 <0>         0.1490
     36 H3        9.9380  -42.7777   -0.8231 H         1 <0>         0.1278
     37 H4        7.7636  -47.9526    5.7167 H         1 <0>         0.1526
     38 H5       12.1986  -49.3032    3.9437 H         1 <0>         0.1504
     39 H6        9.7849  -44.5446    0.8985 H         1 <0>         0.1327
     40 H7        6.6508  -43.4014    3.1214 H         1 <0>         0.1258
     41 H8        7.1761  -45.9118   -0.3505 H         1 <0>         0.1454
     42 H9       11.9251  -42.6368   -2.2907 H         1 <0>         0.1346
     43 H10       7.3813  -41.4387    1.8142 H         1 <0>         0.1548
     44 H11       7.9059  -43.9482   -1.6540 H         1 <0>         0.1528
     45 H12      10.6426  -47.9296   -0.6672 H         1 <0>         0.1761
     46 H13       8.9303  -47.9625   -0.1128 H         1 <0>         0.0620
     47 H14       9.7287  -46.3895   -0.4803 H         1 <0>         0.0988
     48 H15       8.5998  -39.4768   -0.6998 H         1 <0>         0.0751
     49 H16       9.0342  -40.4014    0.7717 H         1 <0>         0.0276
     50 H17       7.3333  -39.9689    0.4541 H         1 <0>         0.0648
     51 H18      14.9114  -44.8872   -3.9452 H         1 <0>         0.0714
     52 H19      13.1228  -44.8097   -4.0008 H         1 <0>         0.0265
     53 H20      13.9345  -46.1098   -3.0893 H         1 <0>         0.0248
     54 H21       5.5940  -45.7127    2.9332 H         1 <0>         0.0601
     55 H22       6.0620  -46.7808    1.6057 H         1 <0>         0.0728
     56 H23      11.4997  -48.9899    1.7557 H         1 <0>         0.1003
     57 H24       9.7901  -49.3268    1.4400 H         1 <0>         0.1107
     58 H25      12.4255  -47.1747    1.4097 H         1 <0>         0.1428
     59 H26      11.5698  -46.0366    2.4622 H         1 <0>         0.0891
     60 H27       7.9303  -45.8862    3.7408 H         1 <0>         0.3177
     61 H28       9.5942  -46.8042    1.8430 H         1 <0>         0.4586
@<TRIPOS>BOND
     1    1    2 ar
     2    1    4 ar
     3    2    5 ar
     4    3    6 ar
     5    3    9 ar
     6    4   12 ar
     7    5   15 ar
     8    6   16 ar
     9    7   10 ar
    10    7   14 ar
    11    8   11 ar
    12    8   14 ar
    13    9   18 ar
    14   10   17 ar
    15   11   17 ar
    16   12   15 ar
    17   12   19 1
    18   13   16 ar
    19   13   18 ar
    20   13   20 1
    21   14   24 1
    22   15   25 1
    23   16   26 1
    24   17   32 1
    25   18   33 1
    26   19   27 am
    27   19   30 2
    28   20   29 1
    29   20   31 2
    30   21   28 1
    31   22   32 1
    32   23   33 1
    33   24   27 1
    34   25   28 1
    35   26   28 1
    36    1   34 1
    37    2   35 1
    38    3   36 1
    39    4   37 1
    40    5   38 1
    41    6   39 1
    42    7   40 1
    43    8   41 1
    44    9   42 1
    45   10   43 1
    46   11   44 1
    47   21   45 1
    48   21   46 1
    49   21   47 1
    50   22   48 1
    51   22   49 1
    52   22   50 1
    53   23   51 1
    54   23   52 1
    55   23   53 1
    56   24   54 1
    57   24   55 1
    58   25   56 1
    59   25   57 1
    60   26   58 1
    61   26   59 1
    62   27   60 1
    63   28   61 1
