@<TRIPOS>MOLECULE
AVX101124_1_3
   57    60     0     0     0
SMALL
USER_CHARGES

@<TRIPOS>ATOM
      1 C1        2.9409  -28.3016   -0.9230 C.ar      1 <0>        -0.1296
      2 C2        2.6623  -28.7366   -2.2264 C.ar      1 <0>        -0.1365
      3 C3        2.5291  -27.0377   -0.4904 C.ar      1 <0>        -0.0819
      4 C4        2.8892  -24.5132    1.6505 C.ar      1 <0>        -0.1480
      5 C5        1.9673  -27.9138   -3.1143 C.ar      1 <0>        -0.1289
      6 C6        3.3136  -24.9926    2.8921 C.ar      1 <0>        -0.1532
      7 C7        1.8409  -26.2227   -1.3790 C.ar      1 <0>        -0.0302
      8 C8        1.5663  -24.7157    1.2193 C.ar      1 <0>        -0.0810
      9 C9        0.6527  -25.4002    2.0248 C.ar      1 <0>        -0.0537
     10 C10       1.5689  -26.6573   -2.6800 C.ar      1 <0>        -0.0916
     11 C11       2.3920  -25.6652    3.6682 C.ar      1 <0>         0.0423
     12 C12       1.0971  -25.8633    3.2461 C.ar      1 <0>         0.0625
     13 C13       1.3076  -24.8712   -1.2145 C.2       1 <0>        -0.1024
     14 C14       1.1854  -24.2021   -0.0626 C.2       1 <0>        -0.0149
     15 C15      -0.7411  -25.6312    1.6049 C.2       1 <0>         0.9231
     16 C16       2.1268  -22.2427   -2.4775 C.2       1 <0>         0.6579
     17 C17       0.7740  -25.6496   -3.4567 C.3       1 <0>        -0.0475
     18 C18       1.3272  -26.7568    5.2035 C.3       1 <0>         0.3171
     19 C19       0.8596  -24.3874   -2.5763 C.3       1 <0>         0.1431
     20 C20       3.1762  -21.4622   -3.2525 C.3       1 <0>        -0.1660
     21 C21       4.4257  -21.1329   -2.4372 C.3       1 <0>        -0.0711
     22 C22       4.1234  -20.2059   -1.2542 C.3       1 <0>        -0.0931
     23 C23       3.4876  -18.8949   -1.7285 C.3       1 <0>        -0.1193
     24 C24       4.4034  -18.0637   -2.6188 C.3       1 <0>         0.1063
     25 N1        1.8390  -23.4554   -3.0879 N.am      1 <0>        -0.5502
     26 N2        3.7556  -16.7822   -2.9864 N.4       1 <0>        -0.8412
     27 O1       -1.6179  -24.7208    1.8471 O.co2     1 <0>        -0.8082
     28 O2       -1.0325  -26.7354    1.0108 O.co2     1 <0>        -0.7953
     29 O3        1.5973  -21.8226   -1.4523 O.2       1 <0>        -0.6137
     30 O4        2.6219  -26.1993    4.8985 O.3       1 <0>        -0.3547
     31 O5        0.3546  -26.5467    4.1594 O.3       1 <0>        -0.3043
     32 H1        3.4822  -28.9543   -0.2431 H         1 <0>         0.1279
     33 H2        2.9863  -29.7241   -2.5450 H         1 <0>         0.1164
     34 H3        2.7548  -26.7137    0.5202 H         1 <0>         0.1581
     35 H4        3.6005  -23.9801    1.0226 H         1 <0>         0.1092
     36 H5        1.7426  -28.2562   -4.1190 H         1 <0>         0.1200
     37 H6        4.3323  -24.8384    3.2288 H         1 <0>         0.1322
     38 H7        0.7405  -23.2090   -0.1036 H         1 <0>         0.1371
     39 H8        1.1825  -25.4944   -4.4605 H         1 <0>         0.0398
     40 H9       -0.2632  -25.9957   -3.5323 H         1 <0>         0.0809
     41 H10       1.4389  -27.8353    5.3667 H         1 <0>         0.0568
     42 H11       0.9554  -26.2977    6.1266 H         1 <0>         0.0554
     43 H12      -0.1022  -23.8645   -2.5422 H         1 <0>         0.1009
     44 H13       3.4489  -22.0197   -4.1563 H         1 <0>         0.0630
     45 H14       2.7047  -20.5244   -3.5724 H         1 <0>         0.0508
     46 H15       4.8454  -22.0712   -2.0533 H         1 <0>         0.0674
     47 H16       5.1909  -20.6803   -3.0792 H         1 <0>         0.0795
     48 H17       5.0530  -19.9872   -0.7150 H         1 <0>         0.0143
     49 H18       3.4539  -20.7129   -0.5515 H         1 <0>         0.0579
     50 H19       2.5779  -19.1249   -2.2967 H         1 <0>         0.0764
     51 H20       3.1754  -18.3014   -0.8602 H         1 <0>         0.1145
     52 H21       5.3474  -17.8166   -2.1245 H         1 <0>         0.1061
     53 H22       4.6122  -18.5867   -3.5568 H         1 <0>         0.1118
     54 H23       2.3414  -23.7005   -3.9361 H         1 <0>         0.3074
     55 H24       2.9362  -16.6006   -2.3960 H         1 <0>         0.4653
     56 H25       3.4425  -16.7952   -3.9637 H         1 <0>         0.4589
     57 H26       4.4049  -15.9950   -2.8743 H         1 <0>         0.4561
@<TRIPOS>BOND
     1    1    2 ar
     2    1    3 ar
     3    2    5 ar
     4    3    7 ar
     5    4    6 ar
     6    4    8 ar
     7    5   10 ar
     8    6   11 ar
     9    7   10 ar
    10    7   13 1
    11    8    9 ar
    12    8   14 1
    13    9   12 ar
    14    9   15 1
    15   10   17 1
    16   11   12 ar
    17   11   30 1
    18   12   31 1
    19   13   14 2
    20   13   19 1
    21   15   27 1
    22   15   28 2
    23   16   20 1
    24   16   25 am
    25   16   29 2
    26   17   19 1
    27   18   30 1
    28   18   31 1
    29   19   25 1
    30   20   21 1
    31   21   22 1
    32   22   23 1
    33   23   24 1
    34   24   26 1
    35    1   32 1
    36    2   33 1
    37    3   34 1
    38    4   35 1
    39    5   36 1
    40    6   37 1
    41   14   38 1
    42   17   39 1
    43   17   40 1
    44   18   41 1
    45   18   42 1
    46   19   43 1
    47   20   44 1
    48   20   45 1
    49   21   46 1
    50   21   47 1
    51   22   48 1
    52   22   49 1
    53   23   50 1
    54   23   51 1
    55   24   52 1
    56   24   53 1
    57   25   54 1
    58   26   55 1
    59   26   56 1
    60   26   57 1
@<TRIPOS>MOLECULE
AVX101124_1_11
   57    60     0     0     0
SMALL
USER_CHARGES

@<TRIPOS>ATOM
      1 C1       10.5733  -41.8856   -1.0292 C.ar      1 <0>        -0.1296
      2 C2        9.2407  -41.4812   -0.8647 C.ar      1 <0>        -0.1365
      3 C3       10.9288  -43.2322   -0.9129 C.ar      1 <0>        -0.0819
      4 C4       12.2870  -45.3348   -2.5413 C.ar      1 <0>        -0.1480
      5 C5        8.2458  -42.4183   -0.5825 C.ar      1 <0>        -0.1289
      6 C6       13.4687  -44.8624   -3.1176 C.ar      1 <0>        -0.1532
      7 C7        9.9355  -44.1592   -0.6292 C.ar      1 <0>        -0.0302
      8 C8       12.2989  -45.9235   -1.2645 C.ar      1 <0>        -0.0810
      9 C9       13.4927  -46.0468   -0.5497 C.ar      1 <0>        -0.0537
     10 C10       8.6080  -43.7523   -0.4605 C.ar      1 <0>        -0.0916
     11 C11      14.6338  -44.9962   -2.3908 C.ar      1 <0>         0.0423
     12 C12      14.6454  -45.5724   -1.1412 C.ar      1 <0>         0.0625
     13 C13      10.0102  -45.6070   -0.4404 C.2       1 <0>        -0.1024
     14 C14      11.0579  -46.3901   -0.7219 C.2       1 <0>        -0.0149
     15 C15      13.5425  -46.6587    0.7902 C.2       1 <0>         0.9231
     16 C16       8.0132  -47.2921    2.1460 C.2       1 <0>         0.6579
     17 C17       7.6896  -44.9119   -0.2126 C.3       1 <0>        -0.0475
     18 C18      16.6659  -44.9860   -1.6476 C.3       1 <0>         0.3171
     19 C19       8.6648  -46.0708    0.0734 C.3       1 <0>         0.1431
     20 C20       8.3157  -47.3219    3.6355 C.3       1 <0>        -0.1660
     21 C21       9.7559  -47.7135    3.9632 C.3       1 <0>        -0.0711
     22 C22      10.1161  -49.1081    3.4377 C.3       1 <0>        -0.0931
     23 C23      11.5291  -49.5128    3.8697 C.3       1 <0>        -0.1193
     24 C24      11.9820  -50.8479    3.2904 C.3       1 <0>         0.1063
     25 N1        8.7690  -46.3302    1.4915 N.am      1 <0>        -0.5502
     26 N2       12.1526  -50.7515    1.8215 N.4       1 <0>        -0.8412
     27 O1       14.6442  -46.6049    1.4531 O.co2     1 <0>        -0.8082
     28 O2       12.4829  -47.2257    1.2504 O.co2     1 <0>        -0.7953
     29 O3        7.1830  -48.0233    1.6134 O.2       1 <0>        -0.6137
     30 O4       15.8727  -44.5963   -2.7873 O.3       1 <0>        -0.3547
     31 O5       15.8932  -45.6056   -0.5990 O.3       1 <0>        -0.3043
     32 H1       11.3363  -41.1439   -1.2496 H         1 <0>         0.1279
     33 H2        8.9810  -40.4304   -0.9625 H         1 <0>         0.1164
     34 H3       11.9647  -43.5296   -1.0397 H         1 <0>         0.1581
     35 H4       11.3570  -45.2394   -3.0979 H         1 <0>         0.1092
     36 H5        7.2132  -42.1054   -0.4666 H         1 <0>         0.1200
     37 H6       13.4642  -44.4076   -4.1015 H         1 <0>         0.1322
     38 H7       10.9460  -47.4592   -0.5499 H         1 <0>         0.1371
     39 H8        7.0047  -44.7185    0.6198 H         1 <0>         0.0398
     40 H9        7.1133  -45.1114   -1.1233 H         1 <0>         0.0809
     41 H10      17.4352  -45.6927   -1.9807 H         1 <0>         0.0568
     42 H11      17.1581  -44.0954   -1.2407 H         1 <0>         0.0554
     43 H12       8.3281  -46.9966   -0.4048 H         1 <0>         0.1009
     44 H13       8.0784  -46.3452    4.0743 H         1 <0>         0.0630
     45 H14       7.6377  -48.0583    4.0838 H         1 <0>         0.0508
     46 H15      10.4276  -46.9782    3.5033 H         1 <0>         0.0674
     47 H16       9.9257  -47.6670    5.0457 H         1 <0>         0.0795
     48 H17      10.0535  -49.1133    2.3426 H         1 <0>         0.0143
     49 H18       9.3896  -49.8392    3.8064 H         1 <0>         0.0579
     50 H19      12.2371  -48.7420    3.5411 H         1 <0>         0.0764
     51 H20      11.5839  -49.5449    4.9650 H         1 <0>         0.1145
     52 H21      12.9403  -51.1745    3.7045 H         1 <0>         0.1061
     53 H22      11.2295  -51.6223    3.4654 H         1 <0>         0.1118
     54 H23       9.4281  -45.7814    2.0357 H         1 <0>         0.3074
     55 H24      12.1627  -49.7720    1.5155 H         1 <0>         0.4653
     56 H25      11.3872  -51.2266    1.3301 H         1 <0>         0.4589
     57 H26      13.0345  -51.1840    1.5232 H         1 <0>         0.4561
@<TRIPOS>BOND
     1    1    2 ar
     2    1    3 ar
     3    2    5 ar
     4    3    7 ar
     5    4    6 ar
     6    4    8 ar
     7    5   10 ar
     8    6   11 ar
     9    7   10 ar
    10    7   13 1
    11    8    9 ar
    12    8   14 1
    13    9   12 ar
    14    9   15 1
    15   10   17 1
    16   11   12 ar
    17   11   30 1
    18   12   31 1
    19   13   14 2
    20   13   19 1
    21   15   27 1
    22   15   28 2
    23   16   20 1
    24   16   25 am
    25   16   29 2
    26   17   19 1
    27   18   30 1
    28   18   31 1
    29   19   25 1
    30   20   21 1
    31   21   22 1
    32   22   23 1
    33   23   24 1
    34   24   26 1
    35    1   32 1
    36    2   33 1
    37    3   34 1
    38    4   35 1
    39    5   36 1
    40    6   37 1
    41   14   38 1
    42   17   39 1
    43   17   40 1
    44   18   41 1
    45   18   42 1
    46   19   43 1
    47   20   44 1
    48   20   45 1
    49   21   46 1
    50   21   47 1
    51   22   48 1
    52   22   49 1
    53   23   50 1
    54   23   51 1
    55   24   52 1
    56   24   53 1
    57   25   54 1
    58   26   55 1
    59   26   56 1
    60   26   57 1
