@<TRIPOS>MOLECULE
AVX101118_0_8
   65    68     0     0     0
SMALL
USER_CHARGES

@<TRIPOS>ATOM
      1 C1        5.6657  -43.3157    1.7803 C.ar      1 <0>        -0.1096
      2 C2        6.6747  -42.5268    1.2112 C.ar      1 <0>        -0.1174
      3 C3        5.7893  -44.7058    1.7851 C.ar      1 <0>        -0.1010
      4 C4        7.7689  -43.1307    0.6042 C.ar      1 <0>        -0.1158
      5 C5       11.3389  -45.7070   -1.8736 C.ar      1 <0>        -0.1189
      6 C6       12.1980  -45.1576   -2.8295 C.ar      1 <0>        -0.1437
      7 C7        6.9028  -45.3083    1.1992 C.ar      1 <0>        -0.1097
      8 C8       13.2299  -46.2408   -0.4594 C.ar      1 <0>        -0.0775
      9 C9        7.8925  -44.5208    0.6087 C.ar      1 <0>        -0.1051
     10 C10      11.8536  -46.2429   -0.6883 C.ar      1 <0>        -0.1678
     11 C11      13.5734  -45.1429   -2.5957 C.ar      1 <0>         0.0712
     12 C12      14.0907  -45.7040   -1.4209 C.ar      1 <0>         0.0764
     13 C13       7.0083  -46.7906    1.2176 C.2       1 <0>         0.6222
     14 C14      13.7713  -46.8172    0.7933 C.2       1 <0>         0.9127
     15 C15      10.4038  -48.3282    5.3682 C.3       1 <0>        -0.0772
     16 C16      10.5940  -49.1871    4.1205 C.3       1 <0>        -0.0758
     17 C17       9.0157  -48.5162    5.9743 C.3       1 <0>        -0.0763
     18 C18       9.4962  -48.9344    3.0865 C.3       1 <0>        -0.0744
     19 C19       7.9153  -48.2626    4.9434 C.3       1 <0>        -0.0698
     20 C20      15.6821  -44.3006   -3.0776 C.3       1 <0>         0.0885
     21 C21      16.2219  -45.5015   -2.3185 C.3       1 <0>         0.0865
     22 C22       8.0983  -49.1313    3.6903 C.3       1 <0>        -0.0976
     23 C23      10.8207  -44.7707    1.7344 C.3       1 <0>         0.0920
     24 C24       9.0947  -45.1394   -0.0264 C.3       1 <0>         0.1590
     25 C25      10.9015  -46.8199    0.3216 C.3       1 <0>         0.1853
     26 C26       7.0178  -48.8213    2.6529 C.3       1 <0>         0.0764
     27 N1        6.9120  -47.4119    2.4705 N.am      1 <0>        -0.5489
     28 N2       10.0146  -45.7801    0.9574 N.4       1 <0>        -0.7078
     29 O1       14.0244  -46.0268    1.7751 O.co2     1 <0>        -0.7308
     30 O2        7.1916  -47.3902    0.1596 O.2       1 <0>        -0.5247
     31 O3       13.9690  -48.0869    0.8533 O.co2     1 <0>        -0.8500
     32 O4       14.3640  -44.5717   -3.5623 O.3       1 <0>        -0.3235
     33 O5       15.4332  -45.7496   -1.1483 O.3       1 <0>        -0.2757
     34 H1        4.7983  -42.8467    2.2361 H         1 <0>         0.1452
     35 H2        6.5847  -41.4439    1.2156 H         1 <0>         0.1461
     36 H3        5.0109  -45.3088    2.2476 H         1 <0>         0.1549
     37 H4        8.5343  -42.5080    0.1464 H         1 <0>         0.1372
     38 H5       10.2682  -45.7082   -2.0604 H         1 <0>         0.1219
     39 H6       11.7880  -44.7343   -3.7459 H         1 <0>         0.1471
     40 H7       11.1671  -48.5831    6.1143 H         1 <0>         0.0404
     41 H8       10.5490  -47.2715    5.1063 H         1 <0>         0.0392
     42 H9       11.5728  -48.9774    3.6731 H         1 <0>         0.0385
     43 H10      10.5917  -50.2476    4.4065 H         1 <0>         0.0419
     44 H11       8.9223  -49.5378    6.3681 H         1 <0>         0.0456
     45 H12       8.8890  -47.8366    6.8253 H         1 <0>         0.0418
     46 H13       9.5954  -47.9122    2.6942 H         1 <0>         0.0394
     47 H14       9.6362  -49.6128    2.2356 H         1 <0>         0.0254
     48 H15       6.9401  -48.4669    5.4027 H         1 <0>         0.0493
     49 H16       7.9196  -47.2002    4.6620 H         1 <0>         0.0383
     50 H17      15.6447  -43.4065   -2.4434 H         1 <0>         0.0655
     51 H18      16.3152  -44.0782   -3.9447 H         1 <0>         0.0775
     52 H19      16.2196  -46.4056   -2.9397 H         1 <0>         0.0493
     53 H20      17.2494  -45.3143   -1.9916 H         1 <0>         0.0904
     54 H21       7.9933  -50.1852    3.9859 H         1 <0>         0.0677
     55 H22      11.4455  -44.2246    1.0224 H         1 <0>         0.0567
     56 H23      10.1214  -44.1002    2.2374 H         1 <0>         0.0839
     57 H24      11.4313  -45.3164    2.4603 H         1 <0>         0.1324
     58 H25       8.8136  -45.9216   -0.7438 H         1 <0>         0.1113
     59 H26       9.6902  -44.3940   -0.5726 H         1 <0>         0.0741
     60 H27      10.2384  -47.5598   -0.1390 H         1 <0>         0.1255
     61 H28      11.4398  -47.3168    1.1399 H         1 <0>         0.0635
     62 H29       6.0738  -49.2099    3.0129 H         1 <0>         0.0540
     63 H30       7.2882  -49.2829    1.7113 H         1 <0>         0.0884
     64 H31       6.8216  -46.8245    3.3063 H         1 <0>         0.3000
     65 H32       9.4342  -46.2812    1.6524 H         1 <0>         0.5367
@<TRIPOS>BOND
     1    1    2 ar
     2    1    3 ar
     3    2    4 ar
     4    3    7 ar
     5    4    9 ar
     6    5    6 ar
     7    5   10 ar
     8    6   11 ar
     9    7    9 ar
    10    7   13 1
    11    8   10 ar
    12    8   12 ar
    13    8   14 1
    14    9   24 1
    15   10   25 1
    16   11   12 ar
    17   11   32 1
    18   12   33 1
    19   13   27 am
    20   13   30 2
    21   14   29 1
    22   14   31 2
    23   15   16 1
    24   15   17 1
    25   16   18 1
    26   17   19 1
    27   18   22 1
    28   19   22 1
    29   20   21 1
    30   20   32 1
    31   21   33 1
    32   22   26 1
    33   23   28 1
    34   24   28 1
    35   25   28 1
    36   26   27 1
    37    1   34 1
    38    2   35 1
    39    3   36 1
    40    4   37 1
    41    5   38 1
    42    6   39 1
    43   15   40 1
    44   15   41 1
    45   16   42 1
    46   16   43 1
    47   17   44 1
    48   17   45 1
    49   18   46 1
    50   18   47 1
    51   19   48 1
    52   19   49 1
    53   20   50 1
    54   20   51 1
    55   21   52 1
    56   21   53 1
    57   22   54 1
    58   23   55 1
    59   23   56 1
    60   23   57 1
    61   24   58 1
    62   24   59 1
    63   25   60 1
    64   25   61 1
    65   26   62 1
    66   26   63 1
    67   27   64 1
    68   28   65 1
