@<TRIPOS>MOLECULE
AVX101119_0_11
   64    67     0     0     0
SMALL
USER_CHARGES

@<TRIPOS>ATOM
      1 C1        7.0216  -21.5262   -2.1962 C.ar      1 <0>        -0.1177
      2 C2        6.0236  -20.5638   -2.0429 C.ar      1 <0>        -0.1727
      3 C3        1.4306  -25.1798   -2.5365 C.ar      1 <0>        -0.0812
      4 C4       -0.8757  -25.2927   -3.2453 C.ar      1 <0>        -0.0978
      5 C5        6.9250  -22.7442   -1.5236 C.ar      1 <0>        -0.2027
      6 C6        1.4296  -26.5562   -2.3142 C.ar      1 <0>        -0.1616
      7 C7       -0.8767  -26.6692   -3.0231 C.ar      1 <0>        -0.2041
      8 C8       -0.9340  -21.0181    0.7519 C.ar      1 <0>        -0.0955
      9 C9        0.9793  -18.9422    0.9121 C.ar      1 <0>        -0.0981
     10 C10      -0.2204  -20.6200   -0.3807 C.ar      1 <0>        -0.1245
     11 C11       4.8324  -22.0374   -0.5442 C.ar      1 <0>        -0.0830
     12 C12       0.2778  -24.5479   -3.0020 C.ar      1 <0>        -0.1810
     13 C13       4.9290  -20.8194   -1.2168 C.ar      1 <0>        -0.1422
     14 C14       0.7308  -19.5880   -0.3011 C.ar      1 <0>        -0.1033
     15 C15      -0.6698  -20.3644    1.9376 C.ar      1 <0>         0.0788
     16 C16       0.2613  -19.3543    2.0155 C.ar      1 <0>         0.0781
     17 C17       0.2755  -27.3010   -2.5576 C.ar      1 <0>         0.1476
     18 C18       5.8305  -22.9997   -0.6975 C.ar      1 <0>         0.1430
     19 C19      -0.4846  -21.2953   -1.6441 C.2       1 <0>         0.6517
     20 C20       3.6759  -22.3127    0.3314 C.2       1 <0>         0.9128
     21 C21      -0.6007  -19.6485    3.9778 C.3       1 <0>         0.3201
     22 C22       2.8936  -20.1235   -3.3328 C.3       1 <0>         0.0660
     23 C23       1.5223  -29.2452   -1.9934 C.3       1 <0>         0.1066
     24 C24       6.9010  -25.0428   -0.1188 C.3       1 <0>         0.1085
     25 C25       0.2790  -23.0664   -3.2414 C.3       1 <0>         0.1398
     26 C26       3.8710  -19.7657   -1.0709 C.3       1 <0>         0.1724
     27 C27       1.4964  -19.1587   -1.5113 C.3       1 <0>         0.1454
     28 N1        0.3942  -22.3196   -2.0097 N.am      1 <0>        -0.5603
     29 N2        2.6186  -20.0739   -1.8516 N.4       1 <0>        -0.6751
     30 O1        3.6831  -23.3847    1.0409 O.co2     1 <0>        -0.8358
     31 O2       -1.4407  -20.9453   -2.3560 O.2       1 <0>        -0.5908
     32 O3        2.7048  -21.4705    0.3512 O.co2     1 <0>        -0.7634
     33 O4       -1.2624  -20.6148    3.1364 O.3       1 <0>        -0.3223
     34 O5        0.3680  -18.8456    3.2729 O.3       1 <0>        -0.3199
     35 O6        0.2749  -28.6444   -2.3422 O.3       1 <0>        -0.3145
     36 O7        5.7558  -24.1963   -0.0495 O.3       1 <0>        -0.2867
     37 H1        7.8738  -21.3273   -2.8394 H         1 <0>         0.1247
     38 H2        6.1083  -19.6181   -2.5714 H         1 <0>         0.1107
     39 H3        2.3338  -24.6073   -2.3443 H         1 <0>         0.1430
     40 H4       -1.7789  -24.8089   -3.6073 H         1 <0>         0.1246
     41 H5        7.7061  -23.4894   -1.6476 H         1 <0>         0.1367
     42 H6        2.3302  -27.0435   -1.9518 H         1 <0>         0.1580
     43 H7       -1.7789  -27.2436   -3.2135 H         1 <0>         0.1494
     44 H8       -1.6714  -21.8128    0.7073 H         1 <0>         0.1748
     45 H9        1.7102  -18.1445    0.9879 H         1 <0>         0.1722
     46 H10      -1.3577  -18.9850    4.4111 H         1 <0>         0.0879
     47 H11      -0.0917  -20.1799    4.7897 H         1 <0>         0.0854
     48 H12       3.1951  -19.1237   -3.6500 H         1 <0>         0.1093
     49 H13       3.6941  -20.8465   -3.5000 H         1 <0>         0.1715
     50 H14       1.9740  -20.4332   -3.8331 H         1 <0>         0.0773
     51 H15       1.3819  -30.3189   -1.8491 H         1 <0>         0.0752
     52 H16       1.9035  -28.7904   -1.0760 H         1 <0>         0.0265
     53 H17       2.2358  -29.0793   -2.8036 H         1 <0>         0.0572
     54 H18       6.7093  -25.9629    0.4385 H         1 <0>         0.0750
     55 H19       7.7655  -24.5230    0.3014 H         1 <0>         0.0186
     56 H20       7.0990  -25.2878   -1.1648 H         1 <0>         0.0338
     57 H21       1.1153  -22.7806   -3.8884 H         1 <0>         0.0842
     58 H22      -0.6420  -22.7484   -3.7407 H         1 <0>         0.0615
     59 H23       3.5688  -19.6502   -0.0246 H         1 <0>         0.0767
     60 H24       4.2303  -18.7932   -1.4238 H         1 <0>         0.1466
     61 H25       0.8521  -19.1137   -2.3980 H         1 <0>         0.1293
     62 H26       1.9377  -18.1638   -1.3739 H         1 <0>         0.1054
     63 H27       1.1952  -22.5218   -1.4207 H         1 <0>         0.3134
     64 H28       2.3362  -21.0294   -1.5784 H         1 <0>         0.4345
@<TRIPOS>BOND
     1    1    2 ar
     2    1    5 ar
     3    2   13 ar
     4    3    6 ar
     5    3   12 ar
     6    4    7 ar
     7    4   12 ar
     8    5   18 ar
     9    6   17 ar
    10    7   17 ar
    11    8   10 ar
    12    8   15 ar
    13    9   14 ar
    14    9   16 ar
    15   10   14 ar
    16   10   19 1
    17   11   13 ar
    18   11   18 ar
    19   11   20 1
    20   12   25 1
    21   13   26 1
    22   14   27 1
    23   15   16 ar
    24   15   33 1
    25   16   34 1
    26   17   35 1
    27   18   36 1
    28   19   28 am
    29   19   31 2
    30   20   30 1
    31   20   32 2
    32   21   33 1
    33   21   34 1
    34   22   29 1
    35   23   35 1
    36   24   36 1
    37   25   28 1
    38   26   29 1
    39   27   29 1
    40    1   37 1
    41    2   38 1
    42    3   39 1
    43    4   40 1
    44    5   41 1
    45    6   42 1
    46    7   43 1
    47    8   44 1
    48    9   45 1
    49   21   46 1
    50   21   47 1
    51   22   48 1
    52   22   49 1
    53   22   50 1
    54   23   51 1
    55   23   52 1
    56   23   53 1
    57   24   54 1
    58   24   55 1
    59   24   56 1
    60   25   57 1
    61   25   58 1
    62   26   59 1
    63   26   60 1
    64   27   61 1
    65   27   62 1
    66   28   63 1
    67   29   64 1
