@<TRIPOS>MOLECULE
AVX38741_0_3
   65    69     0     0     0
SMALL
USER_CHARGES

@<TRIPOS>ATOM
      1 C1       10.9208  -48.4817    5.6159 C.ar      1 <0>        -0.1229
      2 C2        5.6968  -42.8334    2.0849 C.ar      1 <0>        -0.1089
      3 C3        6.6552  -42.2590    1.2533 C.ar      1 <0>        -0.0974
      4 C4       11.3003  -48.6779    4.2876 C.ar      1 <0>        -0.1336
      5 C5        9.5753  -48.3028    5.9371 C.ar      1 <0>        -0.1299
      6 C6        5.8907  -44.1175    2.5907 C.ar      1 <0>        -0.0723
      7 C7        7.8150  -42.9643    0.9292 C.ar      1 <0>        -0.0936
      8 C8       10.3342  -48.6952    3.2806 C.ar      1 <0>        -0.1093
      9 C9        8.6092  -48.3200    4.9300 C.ar      1 <0>        -0.1451
     10 C10      10.9009  -45.7228   -1.9456 C.ar      1 <0>        -0.1487
     11 C11      11.8155  -45.1642   -2.8384 C.ar      1 <0>        -0.1538
     12 C12       7.0466  -44.8332    2.2557 C.ar      1 <0>        -0.1195
     13 C13      12.7212  -46.6405   -0.6462 C.ar      1 <0>        -0.0656
     14 C14       8.0291  -44.2550    1.4311 C.ar      1 <0>        -0.0942
     15 C15       8.9886  -48.5162    3.6017 C.ar      1 <0>        -0.1367
     16 C16      11.3534  -46.4557   -0.8481 C.ar      1 <0>        -0.1958
     17 C17      13.1885  -45.3397   -2.6261 C.ar      1 <0>         0.0957
     18 C18      13.6350  -46.0954   -1.5480 C.ar      1 <0>         0.0756
     19 C19       7.2104  -46.1940    2.8279 C.2       1 <0>         0.7070
     20 C20      13.1978  -47.4001    0.5280 C.2       1 <0>         0.9223
     21 C21      18.3311  -46.0503   -3.9335 C.2       1 <0>         0.9099
     22 C22       9.2576  -45.0012    1.1161 C.3       1 <0>         0.1580
     23 C23      15.7985  -45.4058   -2.0402 C.3       1 <0>         0.0840
     24 C24       7.8907  -47.0625    0.5298 C.3       1 <0>         0.2627
     25 C25      15.3512  -45.3868   -3.4967 C.3       1 <0>         0.1084
     26 C26       7.9488  -48.5345    2.5177 C.3       1 <0>         0.1226
     27 C27      10.3441  -47.0299    0.1017 C.3       1 <0>         0.1820
     28 C28      17.7191  -44.6450   -3.9138 C.3       1 <0>        -0.2005
     29 C29      16.2703  -44.5219   -4.3465 C.3       1 <0>        -0.0585
     30 N1        7.6940  -47.2040    1.9852 N.am      1 <0>        -0.4646
     31 N2        9.0913  -46.2031    0.2011 N.4       1 <0>        -0.7132
     32 O1       13.3077  -46.7880    1.6534 O.co2     1 <0>        -0.7572
     33 O2       19.2543  -46.2730   -3.1023 O.co2     1 <0>        -0.8450
     34 O3        6.9156  -46.3483    4.0127 O.2       1 <0>        -0.6069
     35 O4       13.4848  -48.6439    0.3788 O.co2     1 <0>        -0.8783
     36 O5       17.8152  -46.8288   -4.7875 O.co2     1 <0>        -0.8547
     37 O6       14.9642  -46.3175   -1.3026 O.3       1 <0>        -0.2918
     38 O7       14.0282  -44.8410   -3.5897 O.3       1 <0>        -0.3046
     39 H1       11.6729  -48.4679    6.4000 H         1 <0>         0.1364
     40 H2        4.7983  -42.2794    2.3401 H         1 <0>         0.1415
     41 H3        6.4982  -41.2618    0.8528 H         1 <0>         0.1480
     42 H4       12.3477  -48.8169    4.0376 H         1 <0>         0.1368
     43 H5        9.2800  -48.1491    6.9710 H         1 <0>         0.1417
     44 H6        5.1402  -44.5435    3.2519 H         1 <0>         0.1594
     45 H7        8.5500  -42.4989    0.2768 H         1 <0>         0.1442
     46 H8       10.6391  -48.8479    2.2482 H         1 <0>         0.1545
     47 H9        7.5633  -48.1795    5.1894 H         1 <0>         0.1426
     48 H10       9.8364  -45.5852   -2.1171 H         1 <0>         0.0992
     49 H11      11.4541  -44.6033   -3.6967 H         1 <0>         0.1491
     50 H12       9.9793  -44.3238    0.5561 H         1 <0>         0.0878
     51 H13       9.8287  -45.3270    1.9857 H         1 <0>         0.0906
     52 H14      16.8272  -45.7713   -1.9546 H         1 <0>         0.0824
     53 H15      15.7546  -44.4075   -1.5849 H         1 <0>         0.0621
     54 H16       7.9696  -48.0059    0.0563 H         1 <0>         0.1942
     55 H17       6.9956  -46.5095    0.1173 H         1 <0>         0.1358
     56 H18      15.3278  -46.4046   -3.9091 H         1 <0>         0.0580
     57 H19       8.2668  -49.1748    1.6873 H         1 <0>         0.0972
     58 H20       6.9994  -48.9334    2.8903 H         1 <0>         0.0787
     59 H21      10.0343  -48.0338   -0.2093 H         1 <0>         0.1595
     60 H22      10.7530  -47.1050    1.1155 H         1 <0>         0.0610
     61 H23      18.3243  -44.0394   -4.6000 H         1 <0>         0.0231
     62 H24      17.8511  -44.2206   -2.9101 H         1 <0>         0.0355
     63 H25      16.1327  -44.8021   -5.3899 H         1 <0>         0.0652
     64 H26      15.9380  -43.4909   -4.2303 H         1 <0>         0.0668
     65 H27       8.9247  -45.8210   -0.7399 H         1 <0>         0.4233
@<TRIPOS>BOND
     1    1    4 ar
     2    1    5 ar
     3    2    3 ar
     4    2    6 ar
     5    3    7 ar
     6    4    8 ar
     7    5    9 ar
     8    6   12 ar
     9    7   14 ar
    10    8   15 ar
    11    9   15 ar
    12   10   11 ar
    13   10   16 ar
    14   11   17 ar
    15   12   14 ar
    16   12   19 1
    17   13   16 ar
    18   13   18 ar
    19   13   20 1
    20   14   22 1
    21   15   26 1
    22   16   27 1
    23   17   18 ar
    24   17   38 1
    25   18   37 1
    26   19   30 am
    27   19   34 2
    28   20   32 1
    29   20   35 2
    30   21   28 1
    31   21   33 1
    32   21   36 2
    33   22   31 1
    34   23   25 1
    35   23   37 1
    36   24   30 1
    37   24   31 1
    38   25   29 1
    39   25   38 1
    40   26   30 1
    41   27   31 1
    42   28   29 1
    43    1   39 1
    44    2   40 1
    45    3   41 1
    46    4   42 1
    47    5   43 1
    48    6   44 1
    49    7   45 1
    50    8   46 1
    51    9   47 1
    52   10   48 1
    53   11   49 1
    54   22   50 1
    55   22   51 1
    56   23   52 1
    57   23   53 1
    58   24   54 1
    59   24   55 1
    60   25   56 1
    61   26   57 1
    62   26   58 1
    63   27   59 1
    64   27   60 1
    65   28   61 1
    66   28   62 1
    67   29   63 1
    68   29   64 1
    69   31   65 1
