@<TRIPOS>MOLECULE
AVX38782_1_6
   71    74     0     0     0
SMALL
USER_CHARGES

@<TRIPOS>ATOM
      1 C1        6.7741  -23.2666   -0.7665 C.ar      1 <0>        -0.0968
      2 C2        6.7593  -22.4024   -1.8646 C.ar      1 <0>        -0.0879
      3 C3        5.5839  -23.5830   -0.1097 C.ar      1 <0>        -0.0930
      4 C4        5.5543  -21.8543   -2.3060 C.ar      1 <0>        -0.0616
      5 C5        1.3533  -19.1807    0.6636 C.ar      1 <0>        -0.1250
      6 C6        0.7690  -19.3880    1.9155 C.ar      1 <0>        -0.1518
      7 C7        4.3790  -23.0349   -0.5511 C.ar      1 <0>        -0.1021
      8 C8       -0.1660  -20.7836   -0.3197 C.ar      1 <0>        -0.0849
      9 C9        4.3640  -22.1707   -1.6491 C.ar      1 <0>        -0.1022
     10 C10       0.8901  -19.8818   -0.4513 C.ar      1 <0>        -0.1893
     11 C11      -0.2780  -20.3003    2.0504 C.ar      1 <0>         0.0996
     12 C12      -0.7600  -20.9811    0.9293 C.ar      1 <0>         0.0760
     13 C13       5.5780  -17.6530   -2.0550 C.2       1 <0>        -0.1817
     14 C14       4.2878  -17.9997   -2.1173 C.2       1 <0>        -0.2036
     15 C15       3.1510  -23.3813    0.1538 C.2       1 <0>         0.6564
     16 C16      -0.6609  -21.5156   -1.5047 C.2       1 <0>         0.9195
     17 C17      -2.1777  -24.1193    5.3300 C.2       1 <0>         0.9111
     18 C18       1.4921  -26.9978    3.6657 C.3       1 <0>        -0.0942
     19 C19       0.6047  -26.8992    2.4060 C.3       1 <0>        -0.0927
     20 C20       2.3423  -25.8596    3.0586 C.3       1 <0>        -0.0868
     21 C21      -2.5488  -21.7293    2.2086 C.3       1 <0>         0.0870
     22 C22       1.8350  -26.3193    1.6752 C.3       1 <0>        -0.1167
     23 C23      -1.6014  -21.6594    3.4011 C.3       1 <0>         0.0987
     24 C24       3.0827  -21.5663   -2.1447 C.3       1 <0>         0.1637
     25 C25       1.5430  -19.6418   -1.7761 C.3       1 <0>         0.1869
     26 C26       3.7922  -19.2543   -2.7572 C.3       1 <0>         0.1415
     27 C27      -3.0685  -22.9093    5.0229 C.3       1 <0>        -0.1984
     28 C28       1.5338  -25.2116    0.7199 C.3       1 <0>         0.1000
     29 C29      -2.3665  -21.5995    4.7168 C.3       1 <0>        -0.0534
     30 N1        2.7401  -24.7179    0.0932 N.am      1 <0>        -0.5497
     31 N2        2.9582  -20.0982   -1.8240 N.4       1 <0>        -0.7133
     32 O1       -1.5676  -20.9667   -2.2334 O.co2     1 <0>        -0.7672
     33 O2       -2.6242  -25.2479    4.9871 O.co2     1 <0>        -0.8473
     34 O3        2.5044  -22.5079    0.7563 O.2       1 <0>        -0.6354
     35 O4       -0.1658  -22.6737   -1.7611 O.co2     1 <0>        -0.8674
     36 O5       -1.0807  -23.8273    5.8875 O.co2     1 <0>        -0.8521
     37 O6       -1.8060  -21.8635    0.9912 O.3       1 <0>        -0.2968
     38 O7       -0.7968  -20.4757    3.3082 O.3       1 <0>        -0.3013
     39 H1        7.7125  -23.6931   -0.4223 H         1 <0>         0.1347
     40 H2        7.6864  -22.1553   -2.3752 H         1 <0>         0.1420
     41 H3        5.6085  -24.2572    0.7454 H         1 <0>         0.1400
     42 H4        5.5538  -21.1816   -3.1623 H         1 <0>         0.1363
     43 H5        2.1731  -18.4735    0.5682 H         1 <0>         0.1144
     44 H6        1.1416  -18.8447    2.7803 H         1 <0>         0.1530
     45 H7        5.8760  -16.7290   -1.5716 H         1 <0>         0.1289
     46 H8        6.3548  -18.2788   -2.4799 H         1 <0>         0.1138
     47 H9        3.5492  -17.3392   -1.6708 H         1 <0>         0.1585
     48 H10       0.9798  -26.7263    4.5963 H         1 <0>         0.0507
     49 H11       2.0074  -27.9513    3.8117 H         1 <0>         0.0491
     50 H12       0.2813  -27.8734    2.0202 H         1 <0>         0.0639
     51 H13      -0.2677  -26.2455    2.4895 H         1 <0>         0.0596
     52 H14       2.0709  -24.8467    3.3678 H         1 <0>         0.0475
     53 H15       3.4212  -25.9954    3.1996 H         1 <0>         0.0463
     54 H16      -3.2080  -22.6002    2.2891 H         1 <0>         0.0851
     55 H17      -3.1782  -20.8328    2.1317 H         1 <0>         0.0592
     56 H18       2.4670  -27.0772    1.1994 H         1 <0>         0.0534
     57 H19      -0.9288  -22.5275    3.4139 H         1 <0>         0.0597
     58 H20       2.9953  -21.6574   -3.2340 H         1 <0>         0.0800
     59 H21       2.2138  -22.0616   -1.6960 H         1 <0>         0.1048
     60 H22       1.0196  -20.1685   -2.5847 H         1 <0>         0.1159
     61 H23       1.5523  -18.5741   -2.0336 H         1 <0>         0.0655
     62 H24       4.6356  -19.8795   -3.0658 H         1 <0>         0.0695
     63 H25       3.1661  -19.0554   -3.6343 H         1 <0>         0.1132
     64 H26      -3.6898  -22.7558    5.9154 H         1 <0>         0.0217
     65 H27      -3.7456  -23.1735    4.2003 H         1 <0>         0.0358
     66 H28       1.0621  -24.3734    1.2414 H         1 <0>         0.0684
     67 H29       0.8636  -25.5547   -0.0741 H         1 <0>         0.0534
     68 H30      -1.6690  -21.3212    5.5056 H         1 <0>         0.0641
     69 H31      -3.1015  -20.8004    4.6224 H         1 <0>         0.0618
     70 H32       3.2725  -25.3765   -0.4657 H         1 <0>         0.3405
     71 H33       3.3605  -19.9751   -0.8792 H         1 <0>         0.5214
@<TRIPOS>BOND
     1    1    2 ar
     2    1    3 ar
     3    2    4 ar
     4    3    7 ar
     5    4    9 ar
     6    5    6 ar
     7    5   10 ar
     8    6   11 ar
     9    7    9 ar
    10    7   15 1
    11    8   10 ar
    12    8   12 ar
    13    8   16 1
    14    9   24 1
    15   10   25 1
    16   11   12 ar
    17   11   38 1
    18   12   37 1
    19   13   14 2
    20   14   26 1
    21   15   30 am
    22   15   34 2
    23   16   32 1
    24   16   35 2
    25   17   27 1
    26   17   33 1
    27   17   36 2
    28   18   19 1
    29   18   20 1
    30   19   22 1
    31   20   22 1
    32   21   23 1
    33   21   37 1
    34   22   28 1
    35   23   29 1
    36   23   38 1
    37   24   31 1
    38   25   31 1
    39   26   31 1
    40   27   29 1
    41   28   30 1
    42    1   39 1
    43    2   40 1
    44    3   41 1
    45    4   42 1
    46    5   43 1
    47    6   44 1
    48   13   45 1
    49   13   46 1
    50   14   47 1
    51   18   48 1
    52   18   49 1
    53   19   50 1
    54   19   51 1
    55   20   52 1
    56   20   53 1
    57   21   54 1
    58   21   55 1
    59   22   56 1
    60   23   57 1
    61   24   58 1
    62   24   59 1
    63   25   60 1
    64   25   61 1
    65   26   62 1
    66   26   63 1
    67   27   64 1
    68   27   65 1
    69   28   66 1
    70   28   67 1
    71   29   68 1
    72   29   69 1
    73   30   70 1
    74   31   71 1
