@<TRIPOS>MOLECULE
AVX38779_1_1
   70    72     0     0     0
SMALL
USER_CHARGES

@<TRIPOS>ATOM
      1 C1       10.0010  -48.5050    5.4228 C.ar      1 <0>        -0.1051
      2 C2       10.5040  -49.4522    4.5297 C.ar      1 <0>        -0.1145
      3 C3        9.0108  -47.6116    5.0101 C.ar      1 <0>        -0.0903
      4 C4       10.0169  -49.5061    3.2238 C.ar      1 <0>        -0.1083
      5 C5       10.3997  -45.2815   -1.3907 C.ar      1 <0>        -0.1232
      6 C6       11.3297  -44.7784   -2.3026 C.ar      1 <0>        -0.1506
      7 C7        8.5236  -47.6654    3.7043 C.ar      1 <0>        -0.0908
      8 C8       12.1378  -46.5771   -0.3179 C.ar      1 <0>        -0.0799
      9 C9        9.0267  -48.6126    2.8111 C.ar      1 <0>        -0.1001
     10 C10      10.8021  -46.1837   -0.4032 C.ar      1 <0>        -0.1821
     11 C11      12.6627  -45.1822   -2.2265 C.ar      1 <0>         0.0997
     12 C12      13.0709  -46.0638   -1.2209 C.ar      1 <0>         0.0734
     13 C13       9.7338  -50.8741   -1.5181 C.2       1 <0>        -0.1767
     14 C14       8.8052  -49.9639   -1.2026 C.2       1 <0>        -0.2101
     15 C15       7.4902  -46.7202    3.2992 C.2       1 <0>         0.6471
     16 C16      12.5619  -47.5243    0.7359 C.2       1 <0>         0.9208
     17 C17      18.1558  -44.6075   -5.0073 C.2       1 <0>         0.9105
     18 C18      15.2778  -45.6365   -1.8046 C.3       1 <0>         0.0864
     19 C19      14.7568  -45.4020   -3.2163 C.3       1 <0>         0.1004
     20 C20       6.8001  -42.2360    1.1414 C.3       1 <0>        -0.0874
     21 C21       6.4538  -43.6884    3.7080 C.3       1 <0>        -0.1219
     22 C22       8.5215  -48.6924    1.4007 C.3       1 <0>         0.1551
     23 C23       9.7794  -46.7092    0.5530 C.3       1 <0>         0.1858
     24 C24       9.0916  -48.5067   -1.0192 C.3       1 <0>         0.1422
     25 C25      16.9910  -45.3806   -4.3736 C.3       1 <0>        -0.1981
     26 C26      15.7424  -44.5854   -4.0433 C.3       1 <0>        -0.0563
     27 C27       7.7061  -43.3950    1.5428 C.3       1 <0>        -0.0880
     28 C28       7.0121  -44.3968    2.4774 C.3       1 <0>         0.0977
     29 N1        7.9162  -45.4500    2.8861 N.am      1 <0>        -0.5171
     30 N2        9.5091  -48.1662    0.3886 N.4       1 <0>        -0.7061
     31 O1       12.8649  -47.0561    1.8938 O.co2     1 <0>        -0.7357
     32 O2       19.2335  -45.2452   -5.1617 O.co2     1 <0>        -0.8464
     33 O3        6.2911  -47.0436    3.3475 O.2       1 <0>        -0.6546
     34 O4       12.6116  -48.7799    0.4542 O.co2     1 <0>        -0.9069
     35 O5       17.8810  -43.4088   -5.3135 O.co2     1 <0>        -0.8528
     36 O6       14.3704  -46.4711   -1.0736 O.3       1 <0>        -0.2997
     37 O7       13.5243  -44.6700   -3.1623 O.3       1 <0>        -0.3003
     38 H1       10.3807  -48.4626    6.4396 H         1 <0>         0.1393
     39 H2       11.2759  -50.1469    4.8510 H         1 <0>         0.1372
     40 H3        8.6273  -46.8775    5.7150 H         1 <0>         0.1506
     41 H4       10.4159  -50.2477    2.5358 H         1 <0>         0.1318
     42 H5        9.3616  -44.9672   -1.4609 H         1 <0>         0.1142
     43 H6       11.0063  -44.0829   -3.0740 H         1 <0>         0.1540
     44 H7        9.4619  -51.9191   -1.6425 H         1 <0>         0.1239
     45 H8       10.7732  -50.5971   -1.6582 H         1 <0>         0.1233
     46 H9        7.7763  -50.2934   -1.0784 H         1 <0>         0.1383
     47 H10      16.2454  -46.1489   -1.8278 H         1 <0>         0.0857
     48 H11      15.4050  -44.6933   -1.2546 H         1 <0>         0.0604
     49 H12      14.5627  -46.3597   -3.7208 H         1 <0>         0.0589
     50 H13       6.4458  -41.6817    2.0164 H         1 <0>         0.0276
     51 H14       7.3457  -41.5336    0.5011 H         1 <0>         0.0272
     52 H15       5.9290  -42.5971    0.5846 H         1 <0>         0.0380
     53 H16       7.2504  -43.1865    4.2679 H         1 <0>         0.0883
     54 H17       5.7063  -42.9355    3.4297 H         1 <0>         0.0354
     55 H18       5.9667  -44.4060    4.3795 H         1 <0>         0.0206
     56 H19       8.2999  -49.7296    1.1180 H         1 <0>         0.1194
     57 H20       7.6035  -48.1076    1.2756 H         1 <0>         0.0765
     58 H21      10.0940  -46.5691    1.5950 H         1 <0>         0.1183
     59 H22       8.8159  -46.1977    0.4290 H         1 <0>         0.0608
     60 H23       8.1939  -47.9152   -1.2258 H         1 <0>         0.1235
     61 H24       9.8980  -48.1528   -1.6708 H         1 <0>         0.0930
     62 H25      17.3769  -45.8009   -3.4361 H         1 <0>         0.0218
     63 H26      16.7383  -46.2293   -5.0234 H         1 <0>         0.0357
     64 H27      15.2318  -44.2397   -4.9407 H         1 <0>         0.0645
     65 H28      16.0089  -43.7074   -3.4536 H         1 <0>         0.0637
     66 H29       8.0298  -43.9127    0.6313 H         1 <0>         0.0639
     67 H30       8.6070  -42.9894    2.0207 H         1 <0>         0.0424
     68 H31       6.1865  -44.8853    1.9457 H         1 <0>         0.0618
     69 H32       8.9036  -45.2184    2.9262 H         1 <0>         0.3639
     70 H33      10.3935  -48.6725    0.5604 H         1 <0>         0.5197
@<TRIPOS>BOND
     1    1    2 ar
     2    1    3 ar
     3    2    4 ar
     4    3    7 ar
     5    4    9 ar
     6    5    6 ar
     7    5   10 ar
     8    6   11 ar
     9    7    9 ar
    10    7   15 1
    11    8   10 ar
    12    8   12 ar
    13    8   16 1
    14    9   22 1
    15   10   23 1
    16   11   12 ar
    17   11   37 1
    18   12   36 1
    19   13   14 2
    20   14   24 1
    21   15   29 am
    22   15   33 2
    23   16   31 1
    24   16   34 2
    25   17   25 1
    26   17   32 1
    27   17   35 2
    28   18   19 1
    29   18   36 1
    30   19   26 1
    31   19   37 1
    32   20   27 1
    33   21   28 1
    34   22   30 1
    35   23   30 1
    36   24   30 1
    37   25   26 1
    38   27   28 1
    39   28   29 1
    40    1   38 1
    41    2   39 1
    42    3   40 1
    43    4   41 1
    44    5   42 1
    45    6   43 1
    46   13   44 1
    47   13   45 1
    48   14   46 1
    49   18   47 1
    50   18   48 1
    51   19   49 1
    52   20   50 1
    53   20   51 1
    54   20   52 1
    55   21   53 1
    56   21   54 1
    57   21   55 1
    58   22   56 1
    59   22   57 1
    60   23   58 1
    61   23   59 1
    62   24   60 1
    63   24   61 1
    64   25   62 1
    65   25   63 1
    66   26   64 1
    67   26   65 1
    68   27   66 1
    69   27   67 1
    70   28   68 1
    71   29   69 1
    72   30   70 1
