@<TRIPOS>MOLECULE
AVX38743_5_2
   47    50     0     0     0
SMALL
NO_CHARGES

@<TRIPOS>ATOM
      1 C1       10.1462  -42.1959   -0.3287 C.ar      1 MOL         -0.134900
      2 C2        8.8833  -41.8917    0.2045 C.ar      1 MOL         -0.126500
      3 C3       10.6620  -43.5002   -0.2558 C.ar      1 MOL         -0.097800
      4 C4       11.7290  -45.4447   -2.0140 C.ar      1 MOL         -0.133600
      5 C5        8.1200  -42.8879    0.8178 C.ar      1 MOL         -0.123500
      6 C6       12.6485  -44.8850   -2.9011 C.ar      1 MOL         -0.105800
      7 C7        9.8992  -44.4861    0.3582 C.ar      1 MOL         -0.042100
      8 C8       12.1734  -46.0552   -0.8369 C.ar      1 MOL         0.002900
      9 C9       13.5391  -46.1166   -0.5490 C.ar      1 MOL         -0.116000
     10 C10       8.6422  -44.1789    0.8939 C.ar      1 MOL         -0.075800
     11 C11      14.0131  -44.9322   -2.6052 C.ar      1 MOL         0.004300
     12 C12      14.4607  -45.5653   -1.4402 C.ar      1 MOL         0.076400
     13 C13      10.1815  -45.9080    0.5886 C.2       1 MOL         -0.026900
     14 C14      11.1787  -46.6151    0.0703 C.2       1 MOL         -0.080400
     15 C15      14.0167  -46.7534    0.7025 C.2       1 MOL         0.913400
     16 C16      18.5265  -45.1592   -4.6261 C.2       1 MOL         0.960400
     17 C17       7.9631  -45.3909    1.4677 C.3       1 MOL         -0.067600
     18 C18      16.1436  -44.0928   -2.9245 C.3       1 MOL         0.113400
     19 C19       9.0913  -46.4487    1.4841 C.3       1 MOL         0.168800
     20 C20      16.6792  -45.3134   -2.1711 C.3       1 MOL         0.106600
     21 C21      17.3239  -46.0984   -4.4790 C.3       1 MOL         0.221100
     22 C22      16.9522  -46.5217   -3.0704 C.3       1 MOL         -0.154100
     23 O1       14.2287  -46.0033    1.7238 O.co2     1 MOL         -0.797600
     24 O2       19.6099  -45.5464   -4.0972 O.co2     1 MOL         -0.440000
     25 O3       14.2004  -48.0305    0.7169 O.co2     1 MOL         -0.664500
     26 O4       18.2804  -44.1004   -5.2827 O.co2     1 MOL         -0.466000
     27 O5       14.8668  -44.3580   -3.5097 O.3       1 MOL         -0.306800
     28 O6       15.7873  -45.6882   -1.1128 O.3       1 MOL         -0.317000
     29 O7        9.6131  -46.5762    2.8060 O.3       1 MOL         -0.594900
     30 H1       10.7282  -41.4091   -0.8039 H         1 MOL         0.125200
     31 H2        8.4953  -40.8731    0.1353 H         1 MOL         0.126200
     32 H3       11.6419  -43.7193   -0.6708 H         1 MOL         0.138200
     33 H4       10.6685  -45.4007   -2.2583 H         1 MOL         0.150000
     34 H5        7.1384  -42.6532    1.2208 H         1 MOL         0.130300
     35 H6       12.2958  -44.4257   -3.8233 H         1 MOL         0.147700
     36 H7       11.2634  -47.6689    0.2959 H         1 MOL         0.148700
     37 H8        7.5618  -45.1864    2.4651 H         1 MOL         0.067400
     38 H9        7.1558  -45.6958    0.7922 H         1 MOL         0.054000
     39 H10      16.0169  -43.2359   -2.2431 H         1 MOL         0.086800
     40 H11      16.8322  -43.7745   -3.7249 H         1 MOL         0.061300
     41 H12       8.7291  -47.4326    1.1616 H         1 MOL         0.061100
     42 H13      17.6576  -45.0353   -1.6728 H         1 MOL         0.085300
     43 H14      17.5767  -47.0085   -5.0426 H         1 MOL         0.140000
     44 H15      16.4571  -45.6352   -4.9771 H         1 MOL         0.183900
     45 H16      17.7345  -47.1291   -2.6073 H         1 MOL         0.105000
     46 H17      16.0394  -47.1161   -3.0935 H         1 MOL         0.096500
     47 H18       8.8930  -46.9239    3.3545 H         1 MOL         0.396800
@<TRIPOS>BOND
     1    1    2 ar
     2    1    3 ar
     3    2    5 ar
     4    3    7 ar
     5    4    6 ar
     6    4    8 ar
     7    5   10 ar
     8    6   11 ar
     9    7   10 ar
    10    7   13 1
    11    8    9 ar
    12    8   14 1
    13    9   12 ar
    14    9   15 1
    15   10   17 1
    16   11   12 ar
    17   11   27 1
    18   12   28 1
    19   13   14 2
    20   13   19 1
    21   15   23 1
    22   15   25 2
    23   16   21 1
    24   16   24 1
    25   16   26 2
    26   17   19 1
    27   18   20 1
    28   18   27 1
    29   19   29 1
    30   20   22 1
    31   20   28 1
    32   21   22 1
    33    1   30 1
    34    2   31 1
    35    3   32 1
    36    4   33 1
    37    5   34 1
    38    6   35 1
    39   14   36 1
    40   17   37 1
    41   17   38 1
    42   18   39 1
    43   18   40 1
    44   19   41 1
    45   20   42 1
    46   21   43 1
    47   21   44 1
    48   22   45 1
    49   22   46 1
    50   29   47 1
