@<TRIPOS>MOLECULE
AVX38747_0_7
   70    73     0     0     0
SMALL
USER_CHARGES

@<TRIPOS>ATOM
      1 C1       -2.4530  -23.0562   -7.4284 C.ar      1 <0>        -0.1466
      2 C2       -1.7068  -24.2462   -7.5178 C.ar      1 <0>        -0.1339
      3 C3       -2.6532  -22.4352   -6.1945 C.ar      1 <0>        -0.1295
      4 C4       -1.1503  -24.8330   -6.3747 C.ar      1 <0>        -0.0974
      5 C5        1.7467  -24.7020   -1.6614 C.ar      1 <0>        -0.1631
      6 C6        2.1481  -24.9295   -0.3431 C.ar      1 <0>        -0.1892
      7 C7        0.4701  -26.7541   -1.6347 C.ar      1 <0>        -0.0781
      8 C8       -2.0862  -23.0166   -5.0686 C.ar      1 <0>        -0.1078
      9 C9       -1.3399  -24.2054   -5.1534 C.ar      1 <0>        -0.0714
     10 C10       0.9046  -25.6105   -2.3046 C.ar      1 <0>        -0.0934
     11 C11       1.7066  -26.0682    0.3315 C.ar      1 <0>         0.0621
     12 C12       0.8847  -26.9895   -0.3218 C.ar      1 <0>         0.0766
     13 C13      -0.4377  -27.7043   -2.3119 C.2       1 <0>         0.9220
     14 C14       0.6281  -21.7337   -1.9611 C.2       1 <0>         0.6508
     15 C15       0.5061  -25.7730    3.9963 C.2       1 <0>         0.9097
     16 C16      -2.1920  -22.5501   -3.6473 C.3       1 <0>        -0.0570
     17 C17       0.5863  -28.0743    1.7115 C.3       1 <0>         0.0893
     18 C18      -0.8908  -24.6451   -3.7818 C.3       1 <0>        -0.0346
     19 C19      -1.0133  -23.3136   -2.9882 C.3       1 <0>         0.1032
     20 C20       2.0079  -27.6261    2.0465 C.3       1 <0>         0.0996
     21 C21       0.4775  -25.3274   -3.7222 C.3       1 <0>        -0.0159
     22 C22       1.9122  -20.9865   -2.2966 C.3       1 <0>        -0.1618
     23 C23       1.9339  -26.3176    4.1941 C.3       1 <0>        -0.1921
     24 C24       2.2601  -27.6527    3.5475 C.3       1 <0>        -0.0548
     25 C25       2.8932  -20.8822   -1.1264 C.3       1 <0>        -0.0629
     26 C26       4.1048  -19.9963   -1.4512 C.3       1 <0>        -0.1038
     27 C27       3.6538  -18.6175   -1.9491 C.3       1 <0>        -0.1121
     28 C28       4.8092  -17.7480   -2.4375 C.3       1 <0>         0.1057
     29 N1        0.1985  -22.5135   -3.0254 N.am      1 <0>        -0.5414
     30 N2        4.3362  -16.3708   -2.7226 N.4       1 <0>        -0.8392
     31 O1       -1.7047  -27.4556   -2.3129 O.co2     1 <0>        -0.8164
     32 O2       -0.4344  -26.4840    4.4452 O.co2     1 <0>        -0.8681
     33 O3        0.0744  -28.7432   -2.8736 O.co2     1 <0>        -0.8200
     34 O4        0.0485  -21.6284   -0.8827 O.2       1 <0>        -0.6314
     35 O5        0.4500  -24.6518    3.4083 O.co2     1 <0>        -0.8415
     36 O6        0.4329  -28.1332    0.2809 O.3       1 <0>        -0.2896
     37 O7        2.2043  -26.2790    1.5931 O.3       1 <0>        -0.3272
     38 H1       -2.8839  -22.6190   -8.3279 H         1 <0>         0.1164
     39 H2       -1.5681  -24.7199   -8.4861 H         1 <0>         0.1258
     40 H3       -3.2384  -21.5206   -6.1254 H         1 <0>         0.1201
     41 H4       -0.5891  -25.7615   -6.4526 H         1 <0>         0.1700
     42 H5        2.1000  -23.8150   -2.1805 H         1 <0>         0.0861
     43 H6        2.8128  -24.2215    0.1471 H         1 <0>         0.0952
     44 H7       -2.0933  -21.4634   -3.5601 H         1 <0>         0.0479
     45 H8       -3.1558  -22.8719   -3.2316 H         1 <0>         0.0687
     46 H9        0.4004  -29.0827    2.0964 H         1 <0>         0.0790
     47 H10      -0.1731  -27.4001    2.1384 H         1 <0>         0.0533
     48 H11      -1.6561  -25.3447   -3.4052 H         1 <0>         0.1331
     49 H12      -1.2127  -23.4993   -1.9268 H         1 <0>         0.0936
     50 H13       2.7507  -28.2670    1.5459 H         1 <0>         0.0528
     51 H14       1.2287  -24.6967   -4.2135 H         1 <0>         0.0058
     52 H15       0.4478  -26.2632   -4.2926 H         1 <0>         0.1017
     53 H16       2.4019  -21.4658   -3.1545 H         1 <0>         0.0542
     54 H17       1.6150  -19.9746   -2.6049 H         1 <0>         0.0733
     55 H18       2.0718  -26.4327    5.2774 H         1 <0>         0.0189
     56 H19       2.6470  -25.5539    3.8599 H         1 <0>         0.0248
     57 H20       1.6749  -28.4639    3.9766 H         1 <0>         0.0611
     58 H21       3.3187  -27.8902    3.6941 H         1 <0>         0.0584
     59 H22       2.3568  -20.4533   -0.2687 H         1 <0>         0.0321
     60 H23       3.2373  -21.8804   -0.8244 H         1 <0>         0.0730
     61 H24       4.7213  -20.4823   -2.2198 H         1 <0>         0.0247
     62 H25       4.7347  -19.8870   -0.5602 H         1 <0>         0.1006
     63 H26       2.9475  -18.7486   -2.7801 H         1 <0>         0.0544
     64 H27       3.1031  -18.0970   -1.1529 H         1 <0>         0.1050
     65 H28       5.6126  -17.6689   -1.6969 H         1 <0>         0.0966
     66 H29       5.2238  -18.1376   -3.3738 H         1 <0>         0.1317
     67 H30       0.7607  -22.5242   -3.8726 H         1 <0>         0.3126
     68 H31       3.4000  -16.2070   -2.3231 H         1 <0>         0.4549
     69 H32       4.2790  -16.2041   -3.7333 H         1 <0>         0.4802
     70 H33       4.9767  -15.6742   -2.3247 H         1 <0>         0.4552
@<TRIPOS>BOND
     1    1    2 ar
     2    1    3 ar
     3    2    4 ar
     4    3    8 ar
     5    4    9 ar
     6    5    6 ar
     7    5   10 ar
     8    6   11 ar
     9    7   10 ar
    10    7   12 ar
    11    7   13 1
    12    8    9 ar
    13    8   16 1
    14    9   18 1
    15   10   21 1
    16   11   12 ar
    17   11   37 1
    18   12   36 1
    19   13   31 1
    20   13   33 2
    21   14   22 1
    22   14   29 am
    23   14   34 2
    24   15   23 1
    25   15   32 1
    26   15   35 2
    27   16   19 1
    28   17   20 1
    29   17   36 1
    30   18   19 1
    31   18   21 1
    32   19   29 1
    33   20   24 1
    34   20   37 1
    35   22   25 1
    36   23   24 1
    37   25   26 1
    38   26   27 1
    39   27   28 1
    40   28   30 1
    41    1   38 1
    42    2   39 1
    43    3   40 1
    44    4   41 1
    45    5   42 1
    46    6   43 1
    47   16   44 1
    48   16   45 1
    49   17   46 1
    50   17   47 1
    51   18   48 1
    52   19   49 1
    53   20   50 1
    54   21   51 1
    55   21   52 1
    56   22   53 1
    57   22   54 1
    58   23   55 1
    59   23   56 1
    60   24   57 1
    61   24   58 1
    62   25   59 1
    63   25   60 1
    64   26   61 1
    65   26   62 1
    66   27   63 1
    67   27   64 1
    68   28   65 1
    69   28   66 1
    70   29   67 1
    71   30   68 1
    72   30   69 1
    73   30   70 1
