@<TRIPOS>MOLECULE
AVX38789_1_3
   64    67     0     0     0
SMALL
USER_CHARGES

@<TRIPOS>ATOM
      1 C1       10.9786  -48.3371    5.3531 C.ar      1 <0>        -0.1108
      2 C2       11.7496  -49.2253    4.6023 C.ar      1 <0>        -0.1073
      3 C3        7.7637  -43.0284   -0.2815 C.2       1 <0>        -0.2755
      4 C4        9.8250  -47.7781    4.7992 C.ar      1 <0>        -0.1005
      5 C5       11.3671  -49.5545    3.2975 C.ar      1 <0>        -0.1062
      6 C6       11.0314  -46.0486   -1.7681 C.ar      1 <0>        -0.1329
      7 C7       11.8130  -45.4356   -2.7500 C.ar      1 <0>        -0.1527
      8 C8        7.3921  -43.1899    1.0784 C.2       1 <0>        -0.2252
      9 C9        7.8971  -44.2974   -0.7944 C.2       1 <0>         0.2769
     10 C10       9.4425  -48.1074    3.4944 C.ar      1 <0>        -0.1282
     11 C11      13.0260  -46.6294   -0.5252 C.ar      1 <0>        -0.0551
     12 C12      10.2135  -48.9956    2.7435 C.ar      1 <0>        -0.0970
     13 C13      11.6369  -46.6402   -0.6545 C.ar      1 <0>        -0.2041
     14 C14      13.2021  -45.4157   -2.6173 C.ar      1 <0>         0.0966
     15 C15      13.8081  -46.0304   -1.5154 C.ar      1 <0>         0.0567
     16 C16       7.3247  -44.5461    1.2994 C.2       1 <0>         0.1613
     17 C17       8.2340  -47.5087    2.9402 C.2       1 <0>         0.6499
     18 C18      13.6631  -47.2391    0.6648 C.2       1 <0>         0.9169
     19 C19      18.1372  -45.8652   -4.6239 C.2       1 <0>         0.9108
     20 C20      15.8287  -45.0966   -2.1815 C.3       1 <0>         0.0851
     21 C21      15.3061  -45.2345   -3.6107 C.3       1 <0>         0.0987
     22 C22      10.3753  -49.2399   -1.0974 C.3       1 <0>         0.0549
     23 C23       9.8261  -49.3668    1.3378 C.3       1 <0>         0.1411
     24 C24      10.7704  -47.2747    0.3868 C.3       1 <0>         0.1889
     25 C25       6.9906  -45.3759    2.5093 C.3       1 <0>         0.0638
     26 C26      17.5558  -44.4601   -4.4289 C.3       1 <0>        -0.1985
     27 C27      16.0526  -44.3150   -4.5684 C.3       1 <0>        -0.0548
     28 N1        8.1354  -46.1146    2.9951 N.am      1 <0>        -0.5535
     29 N2       10.7283  -48.7588    0.2915 N.4       1 <0>        -0.6756
     30 O1       13.9148  -46.4920    1.6831 O.co2     1 <0>        -0.8386
     31 O2       19.2428  -46.0987   -4.0599 O.co2     1 <0>        -0.8481
     32 O3        7.3367  -48.2256    2.4650 O.2       1 <0>        -0.5993
     33 O4       13.9417  -48.4933    0.6364 O.co2     1 <0>        -0.7790
     34 O5       17.4156  -46.6323   -5.3280 O.co2     1 <0>        -0.8529
     35 O6        7.6311  -45.2282    0.1628 O.3       1 <0>        -0.3700
     36 O7       15.1662  -46.0586   -1.3380 O.3       1 <0>        -0.2896
     37 O8       13.9181  -44.8750   -3.6558 O.3       1 <0>        -0.3041
     38 H1       11.2766  -48.0801    6.3690 H         1 <0>         0.1471
     39 H2       12.6483  -49.6594    5.0335 H         1 <0>         0.1494
     40 H3        7.9152  -42.1030   -0.8203 H         1 <0>         0.1738
     41 H4        9.2328  -47.0866    5.3939 H         1 <0>         0.1518
     42 H5       11.9751  -50.2473    2.7209 H         1 <0>         0.1491
     43 H6        9.9505  -46.0640   -1.8827 H         1 <0>         0.1016
     44 H7       11.3335  -44.9861   -3.6196 H         1 <0>         0.1510
     45 H8        7.1981  -42.4124    1.8045 H         1 <0>         0.1627
     46 H9        8.1610  -44.6868   -1.7688 H         1 <0>         0.0785
     47 H10      16.9005  -45.3170   -2.1367 H         1 <0>         0.0880
     48 H11      15.6738  -44.0848   -1.7843 H         1 <0>         0.0502
     49 H12      15.3991  -46.2715   -3.9595 H         1 <0>         0.0657
     50 H13       9.3720  -48.8786   -1.3327 H         1 <0>         0.0952
     51 H14      11.1114  -48.8301   -1.7934 H         1 <0>         0.1869
     52 H15      10.4076  -50.3309   -1.0892 H         1 <0>         0.0705
     53 H16       9.8623  -50.4516    1.1914 H         1 <0>         0.1214
     54 H17       8.8086  -49.0327    1.1050 H         1 <0>         0.0992
     55 H18      11.1200  -47.0394    1.4036 H         1 <0>         0.0684
     56 H19       9.7315  -46.9292    0.3068 H         1 <0>         0.1375
     57 H20       6.6294  -44.7420    3.3279 H         1 <0>         0.0909
     58 H21       6.1983  -46.0967    2.2814 H         1 <0>         0.0750
     59 H22      18.0232  -43.8284   -5.1964 H         1 <0>         0.0244
     60 H23      17.8840  -44.0786   -3.4503 H         1 <0>         0.0350
     61 H24      15.7152  -44.5294   -5.5846 H         1 <0>         0.0603
     62 H25      15.7576  -43.2944   -4.3266 H         1 <0>         0.0635
     63 H26       8.8698  -45.5824    3.4514 H         1 <0>         0.3233
     64 H27      11.6791  -49.1132    0.4885 H         1 <0>         0.4377
@<TRIPOS>BOND
     1    1    2 ar
     2    1    4 ar
     3    2    5 ar
     4    3    8 1
     5    3    9 2
     6    4   10 ar
     7    5   12 ar
     8    6    7 ar
     9    6   13 ar
    10    7   14 ar
    11    8   16 2
    12    9   35 1
    13   10   12 ar
    14   10   17 1
    15   11   13 ar
    16   11   15 ar
    17   11   18 1
    18   12   23 1
    19   13   24 1
    20   14   15 ar
    21   14   37 1
    22   15   36 1
    23   16   25 1
    24   16   35 1
    25   17   28 am
    26   17   32 2
    27   18   30 1
    28   18   33 2
    29   19   26 1
    30   19   31 1
    31   19   34 2
    32   20   21 1
    33   20   36 1
    34   21   27 1
    35   21   37 1
    36   22   29 1
    37   23   29 1
    38   24   29 1
    39   25   28 1
    40   26   27 1
    41    1   38 1
    42    2   39 1
    43    3   40 1
    44    4   41 1
    45    5   42 1
    46    6   43 1
    47    7   44 1
    48    8   45 1
    49    9   46 1
    50   20   47 1
    51   20   48 1
    52   21   49 1
    53   22   50 1
    54   22   51 1
    55   22   52 1
    56   23   53 1
    57   23   54 1
    58   24   55 1
    59   24   56 1
    60   25   57 1
    61   25   58 1
    62   26   59 1
    63   26   60 1
    64   27   61 1
    65   27   62 1
    66   28   63 1
    67   29   64 1
