@<TRIPOS>MOLECULE
AVX38748_0_4
   67    70     0     0     0
SMALL
USER_CHARGES

@<TRIPOS>ATOM
      1 C1       -4.6566  -20.6373    0.3146 C.ar      1 <0>        -0.1500
      2 C2       -4.6876  -21.5134   -0.7812 C.ar      1 <0>        -0.1337
      3 C3       -3.5316  -20.5721    1.1396 C.ar      1 <0>        -0.1328
      4 C4       -3.5945  -22.3378   -1.0677 C.ar      1 <0>        -0.0968
      5 C5        1.5190  -24.4965   -1.3774 C.ar      1 <0>        -0.1532
      6 C6        2.3514  -25.6167   -1.3821 C.ar      1 <0>        -0.1634
      7 C7       -0.3523  -25.8705   -2.0677 C.ar      1 <0>        -0.0792
      8 C8       -2.4474  -21.3830    0.8397 C.ar      1 <0>        -0.1096
      9 C9       -2.4742  -22.2598   -0.2539 C.ar      1 <0>        -0.0679
     10 C10       0.1704  -24.6224   -1.7252 C.ar      1 <0>        -0.1123
     11 C11       1.8246  -26.8684   -1.7059 C.ar      1 <0>         0.0612
     12 C12       0.4763  -26.9935   -2.0592 C.ar      1 <0>         0.0703
     13 C13      -1.7833  -26.0013   -2.4247 C.2       1 <0>         0.9202
     14 C14       1.8415  -21.0461   -0.2576 C.2       1 <0>         0.6625
     15 C15       2.3821  -30.3106    2.0038 C.2       1 <0>         0.9090
     16 C16      -1.1559  -21.5050    1.5944 C.3       1 <0>        -0.0555
     17 C17       0.9082  -29.1458   -2.7879 C.3       1 <0>         0.0894
     18 C18      -1.1964  -23.0588   -0.3157 C.3       1 <0>        -0.0381
     19 C19      -0.2450  -22.1733    0.5385 C.3       1 <0>         0.1058
     20 C20       2.0275  -29.2100   -1.7544 C.3       1 <0>         0.0984
     21 C21      -0.6983  -23.3921   -1.7171 C.3       1 <0>        -0.0098
     22 C22       2.2941  -19.9220   -1.1794 C.3       1 <0>        -0.1684
     23 C23       2.6960  -29.7244    0.6208 C.3       1 <0>        -0.1925
     24 C24       1.5573  -29.6938   -0.3819 C.3       1 <0>        -0.0521
     25 C25       3.8137  -19.8341   -1.3525 C.3       1 <0>        -0.0655
     26 C26       4.2358  -18.6787   -2.2689 C.3       1 <0>        -0.1141
     27 C27       3.6081  -17.3696   -1.8128 C.3       1 <0>         0.1021
     28 N1        0.4575  -21.1664   -0.2388 N.am      1 <0>        -0.5359
     29 N2        4.2042  -16.2511   -2.5873 N.4       1 <0>        -0.8433
     30 O1       -2.6154  -26.3813   -1.5175 O.co2     1 <0>        -0.8274
     31 O2        2.0890  -31.5382    2.0434 O.co2     1 <0>        -0.8646
     32 O3       -2.1411  -25.7304   -3.6287 O.co2     1 <0>        -0.8229
     33 O4        2.6240  -21.7587    0.3652 O.2       1 <0>        -0.6236
     34 O5        2.4705  -29.4772    2.9508 O.co2     1 <0>        -0.8533
     35 O6       -0.0995  -28.1943   -2.3843 O.3       1 <0>        -0.2919
     36 O7        2.6842  -27.9350   -1.6613 O.3       1 <0>        -0.3192
     37 H1       -5.5195  -20.0091    0.5253 H         1 <0>         0.1144
     38 H2       -5.5754  -21.5564   -1.4079 H         1 <0>         0.1257
     39 H3       -3.5127  -19.9013    1.9918 H         1 <0>         0.1164
     40 H4       -3.6352  -23.0233   -1.9073 H         1 <0>         0.1713
     41 H5        1.9325  -23.5282   -1.1055 H         1 <0>         0.0887
     42 H6        3.4025  -25.5085   -1.1186 H         1 <0>         0.1259
     43 H7       -0.7742  -20.5329    1.9233 H         1 <0>         0.0427
     44 H8       -1.3057  -22.1628    2.4590 H         1 <0>         0.0697
     45 H9        1.3081  -28.8470   -3.7697 H         1 <0>         0.0734
     46 H10       0.4132  -30.1242   -2.9169 H         1 <0>         0.0479
     47 H11      -1.3824  -23.9995    0.2305 H         1 <0>         0.1342
     48 H12       0.5359  -22.7746    1.0180 H         1 <0>         0.0987
     49 H13       2.8215  -29.9315   -2.1195 H         1 <0>         0.0543
     50 H14      -0.1355  -22.5412   -2.1239 H         1 <0>         0.0021
     51 H15      -1.5560  -23.5388   -2.3852 H         1 <0>         0.0972
     52 H16       1.8980  -18.9694   -0.8083 H         1 <0>         0.0537
     53 H17       1.8378  -20.1100   -2.1590 H         1 <0>         0.0714
     54 H18       3.4973  -30.3458    0.1988 H         1 <0>         0.0207
     55 H19       3.1118  -28.7164    0.7532 H         1 <0>         0.0350
     56 H20       0.7416  -29.0504   -0.0524 H         1 <0>         0.0585
     57 H21       1.1540  -30.6983   -0.5145 H         1 <0>         0.0534
     58 H22       4.3017  -19.7325   -0.3759 H         1 <0>         0.0675
     59 H23       4.1682  -20.7761   -1.7892 H         1 <0>         0.0876
     60 H24       5.3319  -18.5861   -2.2660 H         1 <0>         0.0719
     61 H25       3.9379  -18.8890   -3.3026 H         1 <0>         0.0584
     62 H26       3.8069  -17.1653   -0.7569 H         1 <0>         0.1209
     63 H27       2.5273  -17.3464   -1.9952 H         1 <0>         0.1094
     64 H28      -0.1068  -20.5192   -0.7787 H         1 <0>         0.3142
     65 H29       5.0590  -15.9025   -2.1364 H         1 <0>         0.4609
     66 H30       3.5449  -15.4684   -2.6637 H         1 <0>         0.4559
     67 H31       4.4514  -16.5506   -3.5372 H         1 <0>         0.4558
@<TRIPOS>BOND
     1    1    2 ar
     2    1    3 ar
     3    2    4 ar
     4    3    8 ar
     5    4    9 ar
     6    5    6 ar
     7    5   10 ar
     8    6   11 ar
     9    7   10 ar
    10    7   12 ar
    11    7   13 1
    12    8    9 ar
    13    8   16 1
    14    9   18 1
    15   10   21 1
    16   11   12 ar
    17   11   36 1
    18   12   35 1
    19   13   30 1
    20   13   32 2
    21   14   22 1
    22   14   28 am
    23   14   33 2
    24   15   23 1
    25   15   31 1
    26   15   34 2
    27   16   19 1
    28   17   20 1
    29   17   35 1
    30   18   19 1
    31   18   21 1
    32   19   28 1
    33   20   24 1
    34   20   36 1
    35   22   25 1
    36   23   24 1
    37   25   26 1
    38   26   27 1
    39   27   29 1
    40    1   37 1
    41    2   38 1
    42    3   39 1
    43    4   40 1
    44    5   41 1
    45    6   42 1
    46   16   43 1
    47   16   44 1
    48   17   45 1
    49   17   46 1
    50   18   47 1
    51   19   48 1
    52   20   49 1
    53   21   50 1
    54   21   51 1
    55   22   52 1
    56   22   53 1
    57   23   54 1
    58   23   55 1
    59   24   56 1
    60   24   57 1
    61   25   58 1
    62   25   59 1
    63   26   60 1
    64   26   61 1
    65   27   62 1
    66   27   63 1
    67   28   64 1
    68   29   65 1
    69   29   66 1
    70   29   67 1
