@<TRIPOS>MOLECULE
AVX38674_0_2
   59    62     0     0     0
SMALL
USER_CHARGES

@<TRIPOS>ATOM
      1 C1        7.9508  -41.0979    0.7244 C.ar      1 <0>        -0.1282
      2 C2       16.4277  -44.8898   -3.6004 C.ar      1 <0>        -0.1293
      3 C3        7.5697  -42.4063    1.0203 C.ar      1 <0>        -0.1383
      4 C4        8.7620  -40.8409   -0.3812 C.ar      1 <0>        -0.1341
      5 C5       16.5655  -45.1670   -2.2375 C.ar      1 <0>        -0.1301
      6 C6       15.1576  -44.6945   -4.1533 C.ar      1 <0>        -0.1330
      7 C7        7.9991  -43.4580    0.2108 C.ar      1 <0>        -0.1228
      8 C8        9.1913  -41.8927   -1.1907 C.ar      1 <0>        -0.1008
      9 C9       15.4330  -45.2488   -1.4275 C.ar      1 <0>        -0.0971
     10 C10      14.0251  -44.7763   -3.3433 C.ar      1 <0>        -0.1186
     11 C11       9.7908  -47.5624    0.1518 C.ar      1 <0>        -0.1340
     12 C12       8.4808  -47.1156    0.3462 C.ar      1 <0>        -0.1512
     13 C13       9.0141  -49.2826   -1.3928 C.ar      1 <0>        -0.0634
     14 C14       8.8099  -43.2013   -0.8947 C.ar      1 <0>        -0.1216
     15 C15      14.1628  -45.0535   -1.9803 C.ar      1 <0>        -0.1022
     16 C16      10.0560  -48.6397   -0.7127 C.ar      1 <0>        -0.1136
     17 C17       7.4704  -47.7676   -0.3372 C.ar      1 <0>         0.0394
     18 C18       7.7299  -48.8219   -1.1835 C.ar      1 <0>         0.0587
     19 C19       9.2667  -50.4124   -2.3029 C.2       1 <0>         0.9214
     20 C20      11.7683  -44.3420   -1.6765 C.2       1 <0>         0.6470
     21 C21      12.8631  -47.2737    0.1751 C.2       1 <0>         0.7725
     22 C22       5.5940  -48.4616   -1.1750 C.3       1 <0>         0.3190
     23 C23      12.6480  -49.5243    1.2559 C.3       1 <0>         0.0506
     24 C24       9.2721  -44.3335   -1.7658 C.3       1 <0>         0.1325
     25 C25      11.4806  -49.0828   -0.8879 C.3       1 <0>         0.1358
     26 C26      12.9361  -45.1423   -1.1028 C.3       1 <0>         0.1172
     27 N1       10.5380  -44.8768   -1.3172 N.am      1 <0>        -0.5539
     28 N2       12.4900  -46.5060   -0.9282 N.am      1 <0>        -0.5876
     29 N3       12.3483  -48.5833    0.1818 N.am      1 <0>        -0.4441
     30 O1        9.4991  -50.1679   -3.5474 O.co2     1 <0>        -0.8004
     31 O2        9.2465  -51.6080   -1.8249 O.co2     1 <0>        -0.8235
     32 O3       11.9242  -43.3629   -2.4039 O.2       1 <0>        -0.6099
     33 O4       13.5978  -46.8319    1.0688 O.2       1 <0>        -0.6705
     34 O5        6.1420  -47.4735   -0.2742 O.3       1 <0>        -0.3578
     35 O6        6.5964  -49.3204   -1.7560 O.3       1 <0>        -0.3145
     36 H1        7.6165  -40.2793    1.3550 H         1 <0>         0.1250
     37 H2       17.3093  -44.8265   -4.2313 H         1 <0>         0.1248
     38 H3        6.9388  -42.6060    1.8812 H         1 <0>         0.1263
     39 H4        9.0598  -39.8222   -0.6112 H         1 <0>         0.1314
     40 H5       17.5544  -45.3194   -1.8073 H         1 <0>         0.1316
     41 H6       15.0502  -44.4796   -5.2146 H         1 <0>         0.1257
     42 H7        7.6974  -44.4746    0.4496 H         1 <0>         0.1258
     43 H8        9.8231  -41.6834   -2.0498 H         1 <0>         0.1568
     44 H9       15.5499  -45.4660   -0.3666 H         1 <0>         0.1424
     45 H10      13.0394  -44.6229   -3.7827 H         1 <0>         0.1235
     46 H11      10.6069  -47.0671    0.6779 H         1 <0>         0.1275
     47 H12       8.2721  -46.2853    1.0117 H         1 <0>         0.1313
     48 H13       4.8786  -49.0808   -0.6221 H         1 <0>         0.0502
     49 H14       5.0603  -47.9457   -1.9850 H         1 <0>         0.0506
     50 H15      11.9002  -49.4402    2.0485 H         1 <0>         0.0076
     51 H16      13.6361  -49.3154    1.6822 H         1 <0>         0.0288
     52 H17      12.6404  -50.5480    0.8717 H         1 <0>         0.1267
     53 H18       8.5353  -45.1456   -1.7682 H         1 <0>         0.0491
     54 H19       9.3947  -44.0061   -2.8046 H         1 <0>         0.0832
     55 H20      11.5470  -50.1761   -0.8913 H         1 <0>         0.1028
     56 H21      11.8852  -48.7294   -1.8429 H         1 <0>         0.0790
     57 H22      13.1612  -44.7752   -0.0917 H         1 <0>         0.1059
     58 H23      10.5094  -45.6916   -0.7107 H         1 <0>         0.3043
     59 H24      11.8851  -46.9173   -1.6331 H         1 <0>         0.3255
@<TRIPOS>BOND
     1    1    3 ar
     2    1    4 ar
     3    2    5 ar
     4    2    6 ar
     5    3    7 ar
     6    4    8 ar
     7    5    9 ar
     8    6   10 ar
     9    7   14 ar
    10    8   14 ar
    11    9   15 ar
    12   10   15 ar
    13   11   12 ar
    14   11   16 ar
    15   12   17 ar
    16   13   16 ar
    17   13   18 ar
    18   13   19 1
    19   14   24 1
    20   15   26 1
    21   16   25 1
    22   17   18 ar
    23   17   34 1
    24   18   35 1
    25   19   30 1
    26   19   31 2
    27   20   26 1
    28   20   27 am
    29   20   32 2
    30   21   28 am
    31   21   29 am
    32   21   33 2
    33   22   34 1
    34   22   35 1
    35   23   29 1
    36   24   27 1
    37   25   29 1
    38   26   28 1
    39    1   36 1
    40    2   37 1
    41    3   38 1
    42    4   39 1
    43    5   40 1
    44    6   41 1
    45    7   42 1
    46    8   43 1
    47    9   44 1
    48   10   45 1
    49   11   46 1
    50   12   47 1
    51   22   48 1
    52   22   49 1
    53   23   50 1
    54   23   51 1
    55   23   52 1
    56   24   53 1
    57   24   54 1
    58   25   55 1
    59   25   56 1
    60   26   57 1
    61   27   58 1
    62   28   59 1
