@<TRIPOS>MOLECULE
AVX38786_1_7
   71    74     0     0     0
SMALL
USER_CHARGES

@<TRIPOS>ATOM
      1 C1        6.2651  -44.0021    4.7611 C.ar      1 <0>        -0.1104
      2 C2        6.5981  -42.8033    4.1306 C.ar      1 <0>        -0.1096
      3 C3        6.0512  -45.1533    4.0024 C.ar      1 <0>        -0.1024
      4 C4        6.7172  -42.7557    2.7413 C.ar      1 <0>        -0.1056
      5 C5       10.7574  -45.7067    0.6933 C.ar      1 <0>        -0.1370
      6 C6        8.5382  -48.9281   -1.0151 C.ar      1 <0>        -0.0843
      7 C7        9.3744  -49.0441    1.2485 C.ar      1 <0>        -0.0938
      8 C8       11.9458  -46.3267    0.3041 C.ar      1 <0>        -0.1545
      9 C9        9.7910  -49.3083   -1.4978 C.ar      1 <0>        -0.1697
     10 C10      10.6272  -49.4244    0.7658 C.ar      1 <0>        -0.1972
     11 C11       6.1703  -45.1058    2.6132 C.ar      1 <0>        -0.1277
     12 C12      11.2143  -43.8714   -0.8129 C.ar      1 <0>        -0.0593
     13 C13       8.3298  -48.7959    0.3581 C.ar      1 <0>        -0.1893
     14 C14       6.5033  -43.9070    1.9826 C.ar      1 <0>        -0.1005
     15 C15      10.3950  -44.4782    0.1397 C.ar      1 <0>        -0.1943
     16 C16      12.7491  -45.7322   -0.6781 C.ar      1 <0>         0.0933
     17 C17      12.3960  -44.4975   -1.2127 C.ar      1 <0>         0.0612
     18 C18      10.8355  -49.5565   -0.6074 C.ar      1 <0>         0.1532
     19 C19       5.9407  -46.3224    1.8451 C.2       1 <0>         0.6499
     20 C20      10.8216  -42.5760   -1.4047 C.2       1 <0>         0.9140
     21 C21      18.3995  -46.3398   -3.1307 C.2       1 <0>         0.9108
     22 C22      14.1260  -44.7343   -2.7442 C.3       1 <0>         0.0858
     23 C23      14.8571  -45.5028   -1.6513 C.3       1 <0>         0.0980
     24 C24       7.9552  -44.4555   -1.5311 C.3       1 <0>         0.0563
     25 C25      13.0682  -50.2105   -0.1128 C.3       1 <0>         0.1047
     26 C26       6.9813  -48.3869    0.8775 C.3       1 <0>         0.1408
     27 C27       6.6372  -43.8271    0.4901 C.3       1 <0>         0.1411
     28 C28       9.1193  -43.8376    0.5839 C.3       1 <0>         0.1834
     29 C29      17.2365  -45.5914   -2.4670 C.3       1 <0>        -0.1984
     30 C30      15.9605  -46.3767   -2.2316 C.3       1 <0>        -0.0534
     31 N1        7.0432  -47.1586    1.6376 N.am      1 <0>        -0.5567
     32 N2        7.9092  -44.4536   -0.0240 N.4       1 <0>        -0.6748
     33 O1       10.1080  -42.5802   -2.4737 O.co2     1 <0>        -0.8375
     34 O2       19.4702  -45.6910   -3.2865 O.co2     1 <0>        -0.8459
     35 O3        4.8129  -46.5736    1.3877 O.2       1 <0>        -0.5985
     36 O4       11.2089  -41.4943   -0.8282 O.co2     1 <0>        -0.7786
     37 O5       18.1390  -47.5402   -3.4326 O.co2     1 <0>        -0.8541
     38 O6       13.1477  -43.8630   -2.1665 O.3       1 <0>        -0.2907
     39 O7       13.9356  -46.3611   -0.9644 O.3       1 <0>        -0.3064
     40 O8       12.0572  -49.9285   -1.0792 O.3       1 <0>        -0.3205
     41 H1        6.1718  -44.0392    5.8431 H         1 <0>         0.1467
     42 H2        6.7635  -41.9069    4.7216 H         1 <0>         0.1483
     43 H3        5.7915  -46.0814    4.5054 H         1 <0>         0.1509
     44 H4        6.9767  -41.8166    2.2599 H         1 <0>         0.1489
     45 H5       10.1222  -46.1873    1.4330 H         1 <0>         0.1024
     46 H6        7.7301  -48.7368   -1.7159 H         1 <0>         0.1356
     47 H7        9.2217  -48.9428    2.3201 H         1 <0>         0.1288
     48 H8       12.2250  -47.2790    0.7466 H         1 <0>         0.1496
     49 H9        9.9479  -49.4100   -2.5684 H         1 <0>         0.1518
     50 H10      11.4370  -49.6151    1.4647 H         1 <0>         0.1627
     51 H11      14.8240  -44.1120   -3.3142 H         1 <0>         0.0894
     52 H12      13.6188  -45.4071   -3.4483 H         1 <0>         0.0437
     53 H13      15.2905  -44.8122   -0.9155 H         1 <0>         0.0671
     54 H14       7.9837  -43.4167   -1.8653 H         1 <0>         0.0952
     55 H15       8.8557  -44.9918   -1.8380 H         1 <0>         0.1867
     56 H16       7.0563  -44.9591   -1.8921 H         1 <0>         0.0738
     57 H17      13.9923  -50.4947   -0.6232 H         1 <0>         0.0741
     58 H18      12.7347  -51.0223    0.5383 H         1 <0>         0.0371
     59 H19      13.2462  -49.3145    0.4871 H         1 <0>         0.0623
     60 H20       6.2785  -48.2366    0.0509 H         1 <0>         0.0774
     61 H21       6.5589  -49.1610    1.5267 H         1 <0>         0.0597
     62 H22       5.8093  -44.3411   -0.0098 H         1 <0>         0.1228
     63 H23       6.6387  -42.7863    0.1485 H         1 <0>         0.0991
     64 H24       8.9905  -43.9092    1.6717 H         1 <0>         0.0692
     65 H25       9.0912  -42.7726    0.3195 H         1 <0>         0.1414
     66 H26      16.9940  -44.7533   -3.1324 H         1 <0>         0.0243
     67 H27      17.5924  -45.1592   -1.5233 H         1 <0>         0.0348
     68 H28      16.1197  -47.2165   -1.5579 H         1 <0>         0.0601
     69 H29      15.5922  -46.7726   -3.1778 H         1 <0>         0.0632
     70 H30       7.9550  -46.8736    1.9799 H         1 <0>         0.3149
     71 H31       7.8828  -45.4453    0.2649 H         1 <0>         0.4368
@<TRIPOS>BOND
     1    1    2 ar
     2    1    3 ar
     3    2    4 ar
     4    3   11 ar
     5    4   14 ar
     6    5    8 ar
     7    5   15 ar
     8    6    9 ar
     9    6   13 ar
    10    7   10 ar
    11    7   13 ar
    12    8   16 ar
    13    9   18 ar
    14   10   18 ar
    15   11   14 ar
    16   11   19 1
    17   12   15 ar
    18   12   17 ar
    19   12   20 1
    20   13   26 1
    21   14   27 1
    22   15   28 1
    23   16   17 ar
    24   16   39 1
    25   17   38 1
    26   18   40 1
    27   19   31 am
    28   19   35 2
    29   20   33 1
    30   20   36 2
    31   21   29 1
    32   21   34 1
    33   21   37 2
    34   22   23 1
    35   22   38 1
    36   23   30 1
    37   23   39 1
    38   24   32 1
    39   25   40 1
    40   26   31 1
    41   27   32 1
    42   28   32 1
    43   29   30 1
    44    1   41 1
    45    2   42 1
    46    3   43 1
    47    4   44 1
    48    5   45 1
    49    6   46 1
    50    7   47 1
    51    8   48 1
    52    9   49 1
    53   10   50 1
    54   22   51 1
    55   22   52 1
    56   23   53 1
    57   24   54 1
    58   24   55 1
    59   24   56 1
    60   25   57 1
    61   25   58 1
    62   25   59 1
    63   26   60 1
    64   26   61 1
    65   27   62 1
    66   27   63 1
    67   28   64 1
    68   28   65 1
    69   29   66 1
    70   29   67 1
    71   30   68 1
    72   30   69 1
    73   31   70 1
    74   32   71 1
