@<TRIPOS>MOLECULE
AVX38783_1_5
   68    71     0     0     0
SMALL
USER_CHARGES

@<TRIPOS>ATOM
      1 C1        6.8702  -23.4432   -0.7034 C.ar      1 <0>        -0.1171
      2 C2        6.8051  -22.6827   -1.8729 C.ar      1 <0>        -0.1122
      3 C3        2.9920  -26.6707    4.6438 C.2       1 <0>        -0.1962
      4 C4        5.7141  -23.6799    0.0409 C.ar      1 <0>        -0.0959
      5 C5        5.5838  -22.1589   -2.2982 C.ar      1 <0>        -0.1349
      6 C6        1.6041  -19.4512    0.7405 C.ar      1 <0>        -0.1511
      7 C7        1.0692  -19.6173    2.0196 C.ar      1 <0>        -0.1491
      8 C8        3.0500  -25.5759    3.7471 C.2       1 <0>        -0.1810
      9 C9        2.1307  -27.5813    4.0775 C.2       1 <0>         0.2247
     10 C10       4.4926  -23.1562   -0.3845 C.ar      1 <0>        -0.1074
     11 C11      -0.1460  -20.8419   -0.1813 C.ar      1 <0>        -0.0528
     12 C12       4.4275  -22.3957   -1.5540 C.ar      1 <0>        -0.1021
     13 C13       1.0006  -20.0671   -0.3574 C.ar      1 <0>        -0.2005
     14 C14      -0.0693  -20.4034    2.1982 C.ar      1 <0>         0.0965
     15 C15      -0.6894  -20.9972    1.0955 C.ar      1 <0>         0.0697
     16 C16       2.2202  -25.8958    2.6964 C.2       1 <0>         0.1552
     17 C17       5.6673  -17.9677   -2.2973 C.2       1 <0>        -0.1477
     18 C18       4.3684  -18.2844   -2.2622 C.2       1 <0>        -0.2293
     19 C19       3.3010  -23.4178    0.4121 C.2       1 <0>         0.6504
     20 C20      -0.7882  -21.4834   -1.3479 C.2       1 <0>         0.9162
     21 C21      -2.1555  -24.0488    5.5117 C.2       1 <0>         0.9099
     22 C22      -2.4810  -21.5596    2.4614 C.3       1 <0>         0.0868
     23 C23      -1.4679  -21.6286    3.5982 C.3       1 <0>         0.0979
     24 C24       3.1276  -21.8196   -2.0344 C.3       1 <0>         0.1410
     25 C25       1.6033  -19.8751   -1.7125 C.3       1 <0>         0.1917
     26 C26       1.8389  -25.1788    1.4315 C.3       1 <0>         0.0598
     27 C27       3.8045  -19.5510   -2.8162 C.3       1 <0>         0.1319
     28 C28      -2.9462  -22.7525    5.2977 C.3       1 <0>        -0.1952
     29 C29      -2.1470  -21.5098    4.9559 C.3       1 <0>        -0.0557
     30 N1        2.9977  -24.7574    0.6768 N.am      1 <0>        -0.5524
     31 N2        3.0157  -20.3351   -1.7972 N.4       1 <0>        -0.6775
     32 O1       -1.6089  -20.7916   -2.0566 O.co2     1 <0>        -0.7947
     33 O2       -2.7895  -25.1271    5.3504 O.co2     1 <0>        -0.8488
     34 O3        2.5911  -22.4786    0.8087 O.2       1 <0>        -0.5395
     35 O4       -0.5022  -22.7085   -1.6093 O.co2     1 <0>        -0.8368
     36 O5       -0.9407  -23.8711    5.8161 O.co2     1 <0>        -0.8535
     37 O6        1.6561  -27.1167    2.8901 O.3       1 <0>        -0.4194
     38 O7       -1.8276  -21.7519    1.2018 O.3       1 <0>        -0.2900
     39 O8       -0.5353  -20.5456    3.4800 O.3       1 <0>        -0.3020
     40 H1        7.8214  -23.8506   -0.3716 H         1 <0>         0.1424
     41 H2        7.7057  -22.4977   -2.4515 H         1 <0>         0.1449
     42 H3        3.5127  -26.7820    5.5852 H         1 <0>         0.1897
     43 H4        5.7777  -24.2734    0.9510 H         1 <0>         0.1528
     44 H5        5.5441  -21.5674   -3.2107 H         1 <0>         0.1366
     45 H6        2.4953  -18.8430    0.6106 H         1 <0>         0.0947
     46 H7        1.5504  -19.1415    2.8705 H         1 <0>         0.1495
     47 H8        3.6260  -24.6682    3.8555 H         1 <0>         0.1721
     48 H9        1.7702  -28.5547    4.3768 H         1 <0>         0.0436
     49 H10       6.0166  -17.0329   -1.8731 H         1 <0>         0.1306
     50 H11       6.4006  -18.6290   -2.7448 H         1 <0>         0.1330
     51 H12       3.6753  -17.5886   -1.7972 H         1 <0>         0.1350
     52 H13      -3.2331  -22.3488    2.5643 H         1 <0>         0.0854
     53 H14      -3.0034  -20.5943    2.4360 H         1 <0>         0.0586
     54 H15      -0.9029  -22.5693    3.5578 H         1 <0>         0.0606
     55 H16       2.9978  -21.9761   -3.1118 H         1 <0>         0.1557
     56 H17       2.2772  -22.2849   -1.5238 H         1 <0>         0.1479
     57 H18       1.0498  -20.4288   -2.4822 H         1 <0>         0.1467
     58 H19       1.6033  -18.8173   -2.0065 H         1 <0>         0.0748
     59 H20       1.2348  -25.8266    0.7865 H         1 <0>         0.0984
     60 H21       1.2402  -24.2885    1.6501 H         1 <0>         0.0580
     61 H22       4.6119  -20.2084   -3.1524 H         1 <0>         0.0844
     62 H23       3.1266  -19.3725   -3.6582 H         1 <0>         0.1175
     63 H24      -3.4758  -22.5605    6.2400 H         1 <0>         0.0214
     64 H25      -3.7099  -22.9318    4.5295 H         1 <0>         0.0349
     65 H26      -1.3826  -21.3021    5.7035 H         1 <0>         0.0629
     66 H27      -2.8106  -20.6469    4.9067 H         1 <0>         0.0634
     67 H28       3.5771  -25.4872    0.2750 H         1 <0>         0.2937
     68 H29       3.4606  -20.1553   -0.8813 H         1 <0>         0.4219
@<TRIPOS>BOND
     1    1    2 ar
     2    1    4 ar
     3    2    5 ar
     4    3    8 1
     5    3    9 2
     6    4   10 ar
     7    5   12 ar
     8    6    7 ar
     9    6   13 ar
    10    7   14 ar
    11    8   16 2
    12    9   37 1
    13   10   12 ar
    14   10   19 1
    15   11   13 ar
    16   11   15 ar
    17   11   20 1
    18   12   24 1
    19   13   25 1
    20   14   15 ar
    21   14   39 1
    22   15   38 1
    23   16   26 1
    24   16   37 1
    25   17   18 2
    26   18   27 1
    27   19   30 am
    28   19   34 2
    29   20   32 1
    30   20   35 2
    31   21   28 1
    32   21   33 1
    33   21   36 2
    34   22   23 1
    35   22   38 1
    36   23   29 1
    37   23   39 1
    38   24   31 1
    39   25   31 1
    40   26   30 1
    41   27   31 1
    42   28   29 1
    43    1   40 1
    44    2   41 1
    45    3   42 1
    46    4   43 1
    47    5   44 1
    48    6   45 1
    49    7   46 1
    50    8   47 1
    51    9   48 1
    52   17   49 1
    53   17   50 1
    54   18   51 1
    55   22   52 1
    56   22   53 1
    57   23   54 1
    58   24   55 1
    59   24   56 1
    60   25   57 1
    61   25   58 1
    62   26   59 1
    63   26   60 1
    64   27   61 1
    65   27   62 1
    66   28   63 1
    67   28   64 1
    68   29   65 1
    69   29   66 1
    70   30   67 1
    71   31   68 1
