@<TRIPOS>MOLECULE
AVX38749_0_15
   64    67     0     0     0
SMALL
USER_CHARGES

@<TRIPOS>ATOM
      1 C1       -2.3857  -22.8969    1.4820 C.ar      1 <0>        -0.1486
      2 C2       -1.5869  -24.0507    1.5526 C.ar      1 <0>        -0.1320
      3 C3       -1.9265  -21.7566    0.8168 C.ar      1 <0>        -0.1317
      4 C4       -0.3182  -24.0819    0.9567 C.ar      1 <0>        -0.0955
      5 C5        3.0105  -25.2580   -1.0894 C.ar      1 <0>        -0.1546
      6 C6        3.3761  -26.5986   -0.9651 C.ar      1 <0>        -0.1632
      7 C7        0.9078  -25.9156   -2.0940 C.ar      1 <0>        -0.0789
      8 C8       -0.6623  -21.7917    0.2391 C.ar      1 <0>        -0.1125
      9 C9        0.1329  -22.9451    0.3018 C.ar      1 <0>        -0.0698
     10 C10       1.7806  -24.9168   -1.6581 C.ar      1 <0>        -0.1141
     11 C11       2.5098  -27.5975   -1.4136 C.ar      1 <0>         0.0632
     12 C12       1.2668  -27.2569   -1.9574 C.ar      1 <0>         0.0714
     13 C13      -0.3982  -25.5505   -2.6857 C.2       1 <0>         0.9198
     14 C14       3.6426  -20.3972   -1.4408 C.2       1 <0>         0.6617
     15 C15       1.1243  -31.0617    2.2583 C.2       1 <0>         0.9083
     16 C16       0.0244  -20.7120   -0.5406 C.3       1 <0>        -0.0543
     17 C17       1.0106  -29.4573   -2.6231 C.3       1 <0>         0.0888
     18 C18       1.4413  -22.7515   -0.4313 C.3       1 <0>        -0.0384
     19 C19       1.4888  -21.2009   -0.4993 C.3       1 <0>         0.1032
     20 C20       1.8517  -29.8599   -1.4174 C.3       1 <0>         0.0988
     21 C21       1.4204  -23.4602   -1.7843 C.3       1 <0>        -0.0104
     22 C22       4.2294  -19.8326   -2.7260 C.3       1 <0>        -0.1709
     23 C23       1.8684  -30.6441    0.9799 C.3       1 <0>        -0.1923
     24 C24       1.0256  -30.0753   -0.1455 C.3       1 <0>        -0.0525
     25 C25       4.8054  -18.4306   -2.5401 C.3       1 <0>        -0.1038
     26 C26       3.7776  -17.5001   -1.9055 C.3       1 <0>         0.1012
     27 N1        2.2853  -20.6625   -1.5708 N.am      1 <0>        -0.5244
     28 N2        4.3140  -16.1173   -1.9065 N.4       1 <0>        -0.8409
     29 O1       -1.3951  -25.3291   -1.8976 O.co2     1 <0>        -0.8272
     30 O2        0.1466  -31.8487    2.1129 O.co2     1 <0>        -0.8638
     31 O3       -0.4875  -25.4687   -3.9659 O.co2     1 <0>        -0.8207
     32 O4        4.3076  -20.5847   -0.4254 O.2       1 <0>        -0.6284
     33 O5        1.6010  -30.5656    3.3194 O.co2     1 <0>        -0.8532
     34 O6        0.3594  -28.1920   -2.3845 O.3       1 <0>        -0.2914
     35 O7        2.8870  -28.8956   -1.1731 O.3       1 <0>        -0.3191
     36 H1       -3.3685  -22.8900    1.9557 H         1 <0>         0.1161
     37 H2       -1.9572  -24.9243    2.0840 H         1 <0>         0.1274
     38 H3       -2.5494  -20.8690    0.7573 H         1 <0>         0.1172
     39 H4        0.2922  -24.9770    1.0157 H         1 <0>         0.1729
     40 H5        3.6939  -24.4855   -0.7438 H         1 <0>         0.0841
     41 H6        4.3396  -26.8555   -0.5289 H         1 <0>         0.1251
     42 H7       -0.3630  -20.6259   -1.5596 H         1 <0>         0.0405
     43 H8       -0.0878  -19.7592   -0.0127 H         1 <0>         0.0718
     44 H9        1.6431  -29.3699   -3.5228 H         1 <0>         0.0748
     45 H10       0.2258  -30.2031   -2.8413 H         1 <0>         0.0484
     46 H11       2.2304  -23.1325    0.1752 H         1 <0>         0.1375
     47 H12       1.9841  -20.8021    0.4386 H         1 <0>         0.1012
     48 H13       2.3824  -30.8332   -1.6517 H         1 <0>         0.0556
     49 H14       2.1194  -22.9655   -2.4737 H         1 <0>         0.0009
     50 H15       0.4236  -23.3620   -2.2342 H         1 <0>         0.0995
     51 H16       3.4346  -19.8139   -3.4823 H         1 <0>         0.0627
     52 H17       5.0165  -20.5152   -3.0769 H         1 <0>         0.0799
     53 H18       2.3626  -31.5494    0.6023 H         1 <0>         0.0218
     54 H19       2.6644  -29.9369    1.2509 H         1 <0>         0.0347
     55 H20       0.5664  -29.1266    0.1304 H         1 <0>         0.0584
     56 H21       0.2235  -30.7717   -0.3944 H         1 <0>         0.0543
     57 H22       5.1273  -18.0303   -3.5124 H         1 <0>         0.0977
     58 H23       5.7053  -18.4809   -1.9124 H         1 <0>         0.0863
     59 H24       2.8392  -17.4779   -2.4686 H         1 <0>         0.1124
     60 H25       3.5716  -17.7614   -0.8613 H         1 <0>         0.1033
     61 H26       1.8125  -20.4399   -2.4399 H         1 <0>         0.3181
     62 H27       3.5613  -15.4325   -2.0446 H         1 <0>         0.4548
     63 H28       5.0041  -15.9894   -2.6601 H         1 <0>         0.4673
     64 H29       4.7759  -15.9018   -1.0162 H         1 <0>         0.4520
@<TRIPOS>BOND
     1    1    2 ar
     2    1    3 ar
     3    2    4 ar
     4    3    8 ar
     5    4    9 ar
     6    5    6 ar
     7    5   10 ar
     8    6   11 ar
     9    7   10 ar
    10    7   12 ar
    11    7   13 1
    12    8    9 ar
    13    8   16 1
    14    9   18 1
    15   10   21 1
    16   11   12 ar
    17   11   35 1
    18   12   34 1
    19   13   29 1
    20   13   31 2
    21   14   22 1
    22   14   27 am
    23   14   32 2
    24   15   23 1
    25   15   30 1
    26   15   33 2
    27   16   19 1
    28   17   20 1
    29   17   34 1
    30   18   19 1
    31   18   21 1
    32   19   27 1
    33   20   24 1
    34   20   35 1
    35   22   25 1
    36   23   24 1
    37   25   26 1
    38   26   28 1
    39    1   36 1
    40    2   37 1
    41    3   38 1
    42    4   39 1
    43    5   40 1
    44    6   41 1
    45   16   42 1
    46   16   43 1
    47   17   44 1
    48   17   45 1
    49   18   46 1
    50   19   47 1
    51   20   48 1
    52   21   49 1
    53   21   50 1
    54   22   51 1
    55   22   52 1
    56   23   53 1
    57   23   54 1
    58   24   55 1
    59   24   56 1
    60   25   57 1
    61   25   58 1
    62   26   59 1
    63   26   60 1
    64   27   61 1
    65   28   62 1
    66   28   63 1
    67   28   64 1
