@<TRIPOS>MOLECULE
AVX38784_1_3
   66    68     0     0     0
SMALL
USER_CHARGES

@<TRIPOS>ATOM
      1 C1       12.4112  -25.3353  -26.0355 C.ar      1 <0>        -0.1045
      2 C2       12.2520  -26.6371  -25.5569 C.ar      1 <0>        -0.1135
      3 C3       11.9148  -24.2569  -25.3028 C.ar      1 <0>        -0.0891
      4 C4       11.5963  -26.8610  -24.3457 C.ar      1 <0>        -0.1073
      5 C5        6.2720  -27.9170  -20.8148 C.ar      1 <0>        -0.1236
      6 C6        4.9612  -28.3628  -20.9855 C.ar      1 <0>        -0.1496
      7 C7       11.2591  -24.4806  -24.0915 C.ar      1 <0>        -0.0916
      8 C8        5.8755  -26.1267  -22.3957 C.ar      1 <0>        -0.0778
      9 C9       11.0998  -25.7826  -23.6129 C.ar      1 <0>        -0.1027
     10 C10       6.7301  -26.8040  -21.5229 C.ar      1 <0>        -0.1843
     11 C11       4.1104  -27.6943  -21.8688 C.ar      1 <0>         0.0999
     12 C12       4.5605  -26.5636  -22.5565 C.ar      1 <0>         0.0737
     13 C13      10.7496  -23.3367  -23.3470 C.2       1 <0>         0.6462
     14 C14       6.3610  -24.9421  -23.1353 C.2       1 <0>         0.9187
     15 C15       0.3228  -28.1437  -25.6386 C.2       1 <0>         0.9112
     16 C16       2.3776  -26.1562  -23.2370 C.3       1 <0>         0.0865
     17 C17       2.1812  -27.6659  -23.1710 C.3       1 <0>         0.0987
     18 C18       9.6495  -20.1985  -24.8671 C.3       1 <0>        -0.0877
     19 C19       8.7683  -21.9830  -21.5240 C.3       1 <0>        -0.1220
     20 C20       9.0651  -28.0856  -22.8619 C.3       1 <0>         0.0921
     21 C21      10.3981  -26.0523  -22.3139 C.3       1 <0>         0.1528
     22 C22       8.1418  -26.3573  -21.3224 C.3       1 <0>         0.1881
     23 C23      -0.0752  -27.5535  -24.2805 C.3       1 <0>        -0.1996
     24 C24       0.7069  -28.0281  -23.0689 C.3       1 <0>        -0.0544
     25 C25       9.5563  -20.4549  -23.3672 C.3       1 <0>        -0.0884
     26 C26       8.8253  -21.7624  -23.0330 C.3       1 <0>         0.0986
     27 N1        9.4418  -22.9063  -23.6797 N.am      1 <0>        -0.5184
     28 N2        9.0152  -26.6233  -22.4973 N.4       1 <0>        -0.7111
     29 O1        6.3042  -23.7933  -22.5615 O.co2     1 <0>        -0.7374
     30 O2        0.1792  -29.3900  -25.7730 O.co2     1 <0>        -0.8465
     31 O3       11.4550  -22.7809  -22.4884 O.2       1 <0>        -0.6520
     32 O4        6.8216  -25.1055  -24.3243 O.co2     1 <0>        -0.9020
     33 O5        0.7409  -27.2889  -26.4739 O.co2     1 <0>        -0.8520
     34 O6        3.7634  -25.8453  -23.4111 O.3       1 <0>        -0.2993
     35 O7        2.8417  -28.1915  -22.0093 O.3       1 <0>        -0.2996
     36 H1       12.9213  -25.1608  -26.9791 H         1 <0>         0.1395
     37 H2       12.6377  -27.4767  -26.1283 H         1 <0>         0.1381
     38 H3       12.0445  -23.2470  -25.6865 H         1 <0>         0.1514
     39 H4       11.4771  -27.8794  -23.9819 H         1 <0>         0.1322
     40 H5        6.9308  -28.4474  -20.1302 H         1 <0>         0.1156
     41 H6        4.6151  -29.2357  -20.4370 H         1 <0>         0.1541
     42 H7        1.8363  -25.7296  -24.0896 H         1 <0>         0.0859
     43 H8        2.0224  -25.6578  -22.3256 H         1 <0>         0.0606
     44 H9        2.6132  -28.1514  -24.0560 H         1 <0>         0.0592
     45 H10       8.6579  -20.1518  -25.3284 H         1 <0>         0.0277
     46 H11      10.1504  -19.2431  -25.0558 H         1 <0>         0.0279
     47 H12      10.2250  -20.9867  -25.3630 H         1 <0>         0.0375
     48 H13       9.7749  -22.0328  -21.0955 H         1 <0>         0.0870
     49 H14       8.2226  -21.1738  -21.0256 H         1 <0>         0.0360
     50 H15       8.2635  -22.8807  -21.2855 H         1 <0>         0.0212
     51 H16       9.4967  -28.6274  -22.0164 H         1 <0>         0.0619
     52 H17       8.0436  -28.4155  -23.0594 H         1 <0>         0.1142
     53 H18       9.6890  -28.1860  -23.7523 H         1 <0>         0.0879
     54 H19      10.9566  -26.7711  -21.7020 H         1 <0>         0.1208
     55 H20      10.2838  -25.1333  -21.7287 H         1 <0>         0.0735
     56 H21       8.1984  -25.2774  -21.1329 H         1 <0>         0.1169
     57 H22       8.6071  -26.8675  -20.4675 H         1 <0>         0.0592
     58 H23      -1.1266  -27.8266  -24.1257 H         1 <0>         0.0216
     59 H24      -0.0351  -26.4587  -24.3519 H         1 <0>         0.0363
     60 H25       0.6298  -29.1060  -22.9314 H         1 <0>         0.0647
     61 H26       0.3206  -27.5490  -22.1698 H         1 <0>         0.0629
     62 H27      10.5739  -20.4917  -22.9589 H         1 <0>         0.0641
     63 H28       9.0495  -19.6045  -22.8938 H         1 <0>         0.0427
     64 H29       7.8014  -21.7184  -23.4231 H         1 <0>         0.0623
     65 H30       8.9521  -23.3481  -24.4194 H         1 <0>         0.3643
     66 H31       8.6044  -26.1350  -23.3117 H         1 <0>         0.5209
@<TRIPOS>BOND
     1    1    2 ar
     2    1    3 ar
     3    2    4 ar
     4    3    7 ar
     5    4    9 ar
     6    5    6 ar
     7    5   10 ar
     8    6   11 ar
     9    7    9 ar
    10    7   13 1
    11    8   10 ar
    12    8   12 ar
    13    8   14 1
    14    9   21 1
    15   10   22 1
    16   11   12 ar
    17   11   35 1
    18   12   34 1
    19   13   27 am
    20   13   31 2
    21   14   29 1
    22   14   32 2
    23   15   23 1
    24   15   30 1
    25   15   33 2
    26   16   17 1
    27   16   34 1
    28   17   24 1
    29   17   35 1
    30   18   25 1
    31   19   26 1
    32   20   28 1
    33   21   28 1
    34   22   28 1
    35   23   24 1
    36   25   26 1
    37   26   27 1
    38    1   36 1
    39    2   37 1
    40    3   38 1
    41    4   39 1
    42    5   40 1
    43    6   41 1
    44   16   42 1
    45   16   43 1
    46   17   44 1
    47   18   45 1
    48   18   46 1
    49   18   47 1
    50   19   48 1
    51   19   49 1
    52   19   50 1
    53   20   51 1
    54   20   52 1
    55   20   53 1
    56   21   54 1
    57   21   55 1
    58   22   56 1
    59   22   57 1
    60   23   58 1
    61   23   59 1
    62   24   60 1
    63   24   61 1
    64   25   62 1
    65   25   63 1
    66   26   64 1
    67   27   65 1
    68   28   66 1
