@<TRIPOS>MOLECULE
AVX38753_1_3
   71    74     0     0     0
SMALL
USER_CHARGES

@<TRIPOS>ATOM
      1 C1       -2.0072  -33.0898  -19.9782 C.ar      1 <0>        -0.1091
      2 C2        0.5351  -27.7423  -25.2193 C.ar      1 <0>        -0.1063
      3 C3       -2.1487  -31.7383  -19.6613 C.ar      1 <0>        -0.1325
      4 C4       -0.7519  -33.6013  -20.3119 C.ar      1 <0>        -0.1182
      5 C5        1.7358  -27.1206  -25.5639 C.ar      1 <0>        -0.1139
      6 C6        0.3398  -28.2161  -23.9155 C.ar      1 <0>        -0.0911
      7 C7       -1.0351  -30.8983  -19.6784 C.ar      1 <0>        -0.1179
      8 C8        0.3617  -32.7614  -20.3291 C.ar      1 <0>        -0.0986
      9 C9        2.7414  -26.9728  -24.6048 C.ar      1 <0>        -0.1112
     10 C10       7.2837  -27.3184  -21.8934 C.ar      1 <0>        -0.1259
     11 C11       8.3742  -27.7608  -22.6483 C.ar      1 <0>        -0.1486
     12 C12       1.3454  -28.0683  -22.9564 C.ar      1 <0>        -0.0856
     13 C13       6.9475  -25.4964  -23.4510 C.ar      1 <0>        -0.0798
     14 C14       0.2200  -31.4099  -20.0122 C.ar      1 <0>        -0.1038
     15 C15       2.5463  -27.4466  -23.3011 C.ar      1 <0>        -0.0940
     16 C16       6.5747  -26.1846  -22.2910 C.ar      1 <0>        -0.1775
     17 C17       8.7560  -27.0649  -23.8008 C.ar      1 <0>         0.0959
     18 C18       8.0295  -25.9463  -24.2140 C.ar      1 <0>         0.0781
     19 C19       3.5401  -22.5920  -20.9502 C.2       1 <0>        -0.1791
     20 C20       3.2232  -23.5290  -21.8549 C.2       1 <0>        -0.2090
     21 C21       1.1158  -28.5730  -21.6027 C.2       1 <0>         0.6478
     22 C22       6.1877  -24.3029  -23.8745 C.2       1 <0>         0.9226
     23 C23      12.9095  -25.2434  -26.7232 C.2       1 <0>         0.9111
     24 C24       9.2095  -25.9719  -26.2245 C.3       1 <0>         0.0863
     25 C25      10.3582  -26.5729  -25.4243 C.3       1 <0>         0.0984
     26 C26       1.4187  -30.5057  -20.0309 C.3       1 <0>         0.1243
     27 C27       3.6449  -27.2750  -22.2899 C.3       1 <0>         0.1575
     28 C28       5.4163  -25.7332  -21.4556 C.3       1 <0>         0.1862
     29 C29       3.0525  -24.9755  -21.5262 C.3       1 <0>         0.1429
     30 C30      12.0091  -26.3320  -27.3196 C.3       1 <0>        -0.1994
     31 C31      11.3502  -27.2867  -26.3376 C.3       1 <0>        -0.0537
     32 N1        1.5895  -29.8580  -21.3179 N.am      1 <0>        -0.5173
     33 N2        4.1101  -25.8470  -22.1598 N.4       1 <0>        -0.7139
     34 O1        5.2475  -24.4480  -24.7403 O.co2     1 <0>        -0.7335
     35 O2       13.0726  -24.2052  -27.4229 O.co2     1 <0>        -0.8486
     36 O3        0.5060  -27.8834  -20.7636 O.2       1 <0>        -0.6533
     37 O4        6.4959  -23.1650  -23.3614 O.co2     1 <0>        -0.8962
     38 O5       13.3742  -25.5228  -25.5773 O.co2     1 <0>        -0.8509
     39 O6        8.3341  -25.2413  -25.3532 O.3       1 <0>        -0.2979
     40 O7        9.8471  -27.5356  -24.4881 O.3       1 <0>        -0.2996
     41 H1       -2.8741  -33.7436  -19.9651 H         1 <0>         0.1377
     42 H2       -0.2480  -27.8581  -25.9660 H         1 <0>         0.1397
     43 H3       -3.1260  -31.3401  -19.4016 H         1 <0>         0.1262
     44 H4       -0.6418  -34.6536  -20.5595 H         1 <0>         0.1329
     45 H5        1.8879  -26.7528  -26.5795 H         1 <0>         0.1372
     46 H6       -0.5999  -28.6995  -23.6593 H         1 <0>         0.1492
     47 H7       -1.1551  -29.8464  -19.4309 H         1 <0>         0.1123
     48 H8        1.3357  -33.1686  -20.5906 H         1 <0>         0.1277
     49 H9        3.6733  -26.4873  -24.8840 H         1 <0>         0.1311
     50 H10       6.9967  -27.8620  -20.9931 H         1 <0>         0.1134
     51 H11       8.9263  -28.6395  -22.3268 H         1 <0>         0.1530
     52 H12       3.6456  -21.5553  -21.2510 H         1 <0>         0.1233
     53 H13       3.6980  -22.8385  -19.9016 H         1 <0>         0.1222
     54 H14       3.0705  -23.2281  -22.8926 H         1 <0>         0.1390
     55 H15       9.5855  -25.2720  -26.9812 H         1 <0>         0.0847
     56 H16       8.6227  -26.7428  -26.7424 H         1 <0>         0.0611
     57 H17      10.8829  -25.7947  -24.8525 H         1 <0>         0.0557
     58 H18       1.3242  -29.7251  -19.2644 H         1 <0>         0.0699
     59 H19       2.3353  -31.0640  -19.8135 H         1 <0>         0.0462
     60 H20       3.3211  -27.5914  -21.2879 H         1 <0>         0.1151
     61 H21       4.5246  -27.8692  -22.5616 H         1 <0>         0.0742
     62 H22       5.3259  -26.3246  -20.5323 H         1 <0>         0.1157
     63 H23       5.5190  -24.6809  -21.1582 H         1 <0>         0.0593
     64 H24       2.0912  -25.3372  -21.9037 H         1 <0>         0.1229
     65 H25       3.0986  -25.1671  -20.4449 H         1 <0>         0.0896
     66 H26      12.6479  -26.9249  -27.9905 H         1 <0>         0.0211
     67 H27      11.2491  -25.8510  -27.9490 H         1 <0>         0.0371
     68 H28      12.0812  -27.7936  -25.7096 H         1 <0>         0.0667
     69 H29      10.7942  -28.0473  -26.8861 H         1 <0>         0.0592
     70 H30       2.0249  -30.4018  -22.0597 H         1 <0>         0.3650
     71 H31       4.2405  -25.4978  -23.1276 H         1 <0>         0.5265
@<TRIPOS>BOND
     1    1    3 ar
     2    1    4 ar
     3    2    5 ar
     4    2    6 ar
     5    3    7 ar
     6    4    8 ar
     7    5    9 ar
     8    6   12 ar
     9    7   14 ar
    10    8   14 ar
    11    9   15 ar
    12   10   11 ar
    13   10   16 ar
    14   11   17 ar
    15   12   15 ar
    16   12   21 1
    17   13   16 ar
    18   13   18 ar
    19   13   22 1
    20   14   26 1
    21   15   27 1
    22   16   28 1
    23   17   18 ar
    24   17   40 1
    25   18   39 1
    26   19   20 2
    27   20   29 1
    28   21   32 am
    29   21   36 2
    30   22   34 1
    31   22   37 2
    32   23   30 1
    33   23   35 1
    34   23   38 2
    35   24   25 1
    36   24   39 1
    37   25   31 1
    38   25   40 1
    39   26   32 1
    40   27   33 1
    41   28   33 1
    42   29   33 1
    43   30   31 1
    44    1   41 1
    45    2   42 1
    46    3   43 1
    47    4   44 1
    48    5   45 1
    49    6   46 1
    50    7   47 1
    51    8   48 1
    52    9   49 1
    53   10   50 1
    54   11   51 1
    55   19   52 1
    56   19   53 1
    57   20   54 1
    58   24   55 1
    59   24   56 1
    60   25   57 1
    61   26   58 1
    62   26   59 1
    63   27   60 1
    64   27   61 1
    65   28   62 1
    66   28   63 1
    67   29   64 1
    68   29   65 1
    69   30   66 1
    70   30   67 1
    71   31   68 1
    72   31   69 1
    73   32   70 1
    74   33   71 1
