@<TRIPOS>MOLECULE
AVX38780_0_25
   75    78     0     0     0
SMALL
USER_CHARGES

@<TRIPOS>ATOM
      1 C1       -3.7109  -26.8514  -19.1843 C.ar      1 <0>        -0.1058
      2 C2       -3.7341  -25.8874  -20.2006 C.ar      1 <0>        -0.0980
      3 C3       -3.0213  -28.0536  -19.3703 C.ar      1 <0>        -0.1029
      4 C4       -3.0679  -26.1255  -21.4031 C.ar      1 <0>        -0.0850
      5 C5        2.5324  -27.0518  -22.1493 C.ar      1 <0>        -0.1202
      6 C6        1.8999  -30.2652  -21.7900 C.ar      1 <0>        -0.0827
      7 C7        2.7599  -30.7541  -19.5825 C.ar      1 <0>        -0.0831
      8 C8        3.9226  -26.9623  -22.0715 C.ar      1 <0>        -0.1494
      9 C9        3.1921  -29.9787  -22.2334 C.ar      1 <0>        -0.1453
     10 C10       4.0521  -30.4675  -20.0259 C.ar      1 <0>        -0.2226
     11 C11      -2.3551  -28.2916  -20.5728 C.ar      1 <0>        -0.1133
     12 C12       2.4138  -24.7015  -22.7558 C.ar      1 <0>        -0.0867
     13 C13       1.6839  -30.6529  -20.4645 C.ar      1 <0>        -0.1703
     14 C14      -2.3784  -27.3276  -21.5892 C.ar      1 <0>        -0.0930
     15 C15       1.7788  -25.9216  -22.4855 C.ar      1 <0>        -0.1831
     16 C16       4.5524  -25.6998  -22.2976 C.ar      1 <0>         0.0949
     17 C17       3.8048  -24.6147  -22.6917 C.ar      1 <0>         0.0745
     18 C18       4.2683  -30.0799  -21.3510 C.ar      1 <0>         0.1272
     19 C19       1.3831  -26.6655  -25.8273 C.2       1 <0>        -0.1817
     20 C20       0.3707  -27.2957  -25.2147 C.2       1 <0>        -0.2043
     21 C21      -1.6436  -29.5558  -20.7411 C.2       1 <0>         0.6614
     22 C22       1.6130  -23.5100  -23.1221 C.2       1 <0>         0.9199
     23 C23      10.1115  -22.9907  -22.3256 C.2       1 <0>         0.9111
     24 C24       5.7775  -23.5061  -23.2310 C.3       1 <0>         0.0872
     25 C25       6.4316  -24.3619  -22.1509 C.3       1 <0>         0.0999
     26 C26       6.5964  -30.0432  -20.8701 C.3       1 <0>         0.1124
     27 C27       0.2930  -30.9616  -19.9873 C.3       1 <0>         0.1381
     28 C28      -1.6712  -27.5576  -22.8928 C.3       1 <0>         0.1581
     29 C29       0.2913  -26.0500  -22.5526 C.3       1 <0>         0.1849
     30 C30       0.5182  -28.0923  -23.9570 C.3       1 <0>         0.1469
     31 C31       8.6019  -23.0826  -22.0735 C.3       1 <0>        -0.1984
     32 C32       7.9401  -24.4282  -22.3377 C.3       1 <0>        -0.0543
     33 N1       -0.5287  -29.7701  -19.9234 N.am      1 <0>        -0.5539
     34 N2       -0.1714  -27.4533  -22.7783 N.4       1 <0>        -0.7195
     35 O1        1.3535  -23.3017  -24.3637 O.co2     1 <0>        -0.7487
     36 O2       10.6631  -21.8834  -22.0539 O.co2     1 <0>        -0.8480
     37 O3       -2.0167  -30.3808  -21.5931 O.2       1 <0>        -0.6165
     38 O4        1.2067  -22.7272  -22.1854 O.co2     1 <0>        -0.8677
     39 O5       10.6266  -24.0608  -22.7703 O.co2     1 <0>        -0.8524
     40 O6        4.3717  -23.3956  -22.9881 O.3       1 <0>        -0.2998
     41 O7        5.9222  -25.7091  -22.2157 O.3       1 <0>        -0.3008
     42 O8        5.5294  -29.8017  -21.7839 O.3       1 <0>        -0.3163
     43 H1       -4.2301  -26.6664  -18.2478 H         1 <0>         0.1392
     44 H2       -4.2720  -24.9519  -20.0557 H         1 <0>         0.1444
     45 H3       -3.0110  -28.7973  -18.5711 H         1 <0>         0.1442
     46 H4       -3.0926  -25.3679  -22.1887 H         1 <0>         0.1472
     47 H5        2.0450  -28.0068  -21.9410 H         1 <0>         0.1175
     48 H6        1.0674  -30.1838  -22.4839 H         1 <0>         0.1452
     49 H7        2.6011  -31.0545  -18.5476 H         1 <0>         0.1419
     50 H8        4.5013  -27.8450  -21.8002 H         1 <0>         0.1540
     51 H9        3.3549  -29.6772  -23.2670 H         1 <0>         0.1648
     52 H10       4.8859  -30.5471  -19.3337 H         1 <0>         0.1346
     53 H11       1.2110  -26.0978  -26.7376 H         1 <0>         0.1251
     54 H12       2.3934  -26.7024  -25.4358 H         1 <0>         0.1152
     55 H13      -0.6241  -27.2225  -25.6459 H         1 <0>         0.1443
     56 H14       6.1923  -22.4867  -23.2309 H         1 <0>         0.0851
     57 H15       5.9234  -23.9333  -24.2320 H         1 <0>         0.0586
     58 H16       6.2076  -23.9608  -21.1536 H         1 <0>         0.0588
     59 H17       7.5470  -29.7788  -21.3422 H         1 <0>         0.0738
     60 H18       6.5986  -31.1027  -20.5787 H         1 <0>         0.0300
     61 H19       6.4501  -29.4224  -19.9827 H         1 <0>         0.0276
     62 H20      -0.1970  -31.6756  -20.6587 H         1 <0>         0.0568
     63 H21       0.3089  -31.4182  -18.9880 H         1 <0>         0.0734
     64 H22      -1.8895  -28.5595  -23.2875 H         1 <0>         0.0781
     65 H23      -1.9788  -26.8202  -23.6477 H         1 <0>         0.1066
     66 H24      -0.1833  -25.7141  -21.6220 H         1 <0>         0.1101
     67 H25      -0.1255  -25.4446  -23.3708 H         1 <0>         0.0731
     68 H26       1.5753  -28.1755  -23.6870 H         1 <0>         0.1261
     69 H27       0.0985  -29.1054  -24.0459 H         1 <0>         0.0735
     70 H28       8.1378  -22.3393  -22.7391 H         1 <0>         0.0213
     71 H29       8.4001  -22.7599  -21.0448 H         1 <0>         0.0367
     72 H30       8.3288  -25.2137  -21.6861 H         1 <0>         0.0650
     73 H31       8.1225  -24.7307  -23.3683 H         1 <0>         0.0606
     74 H32      -0.2310  -29.0353  -19.2886 H         1 <0>         0.3269
     75 H33       0.0928  -28.0143  -21.9491 H         1 <0>         0.5277
@<TRIPOS>BOND
     1    1    2 ar
     2    1    3 ar
     3    2    4 ar
     4    3   11 ar
     5    4   14 ar
     6    5    8 ar
     7    5   15 ar
     8    6    9 ar
     9    6   13 ar
    10    7   10 ar
    11    7   13 ar
    12    8   16 ar
    13    9   18 ar
    14   10   18 ar
    15   11   14 ar
    16   11   21 1
    17   12   15 ar
    18   12   17 ar
    19   12   22 1
    20   13   27 1
    21   14   28 1
    22   15   29 1
    23   16   17 ar
    24   16   41 1
    25   17   40 1
    26   18   42 1
    27   19   20 2
    28   20   30 1
    29   21   33 am
    30   21   37 2
    31   22   35 1
    32   22   38 2
    33   23   31 1
    34   23   36 1
    35   23   39 2
    36   24   25 1
    37   24   40 1
    38   25   32 1
    39   25   41 1
    40   26   42 1
    41   27   33 1
    42   28   34 1
    43   29   34 1
    44   30   34 1
    45   31   32 1
    46    1   43 1
    47    2   44 1
    48    3   45 1
    49    4   46 1
    50    5   47 1
    51    6   48 1
    52    7   49 1
    53    8   50 1
    54    9   51 1
    55   10   52 1
    56   19   53 1
    57   19   54 1
    58   20   55 1
    59   24   56 1
    60   24   57 1
    61   25   58 1
    62   26   59 1
    63   26   60 1
    64   26   61 1
    65   27   62 1
    66   27   63 1
    67   28   64 1
    68   28   65 1
    69   29   66 1
    70   29   67 1
    71   30   68 1
    72   30   69 1
    73   31   70 1
    74   31   71 1
    75   32   72 1
    76   32   73 1
    77   33   74 1
    78   34   75 1
