@<TRIPOS>MOLECULE
AVX38787_1_45
   73    76     0     0     0
SMALL
USER_CHARGES

@<TRIPOS>ATOM
      1 C1        4.7661  -18.6293   -2.6222 C.ar      1 <0>        -0.1101
      2 C2        3.5379  -18.0077   -2.3967 C.ar      1 <0>        -0.1088
      3 C3        5.1004  -19.7896   -1.9179 C.ar      1 <0>        -0.1026
      4 C4        2.6441  -18.5463   -1.4667 C.ar      1 <0>        -0.1053
      5 C5       -0.0375  -22.6448   -3.0491 C.ar      1 <0>        -0.1396
      6 C6       -0.7043  -23.6821   -3.7134 C.ar      1 <0>        -0.1538
      7 C7        4.2067  -20.3282   -0.9879 C.ar      1 <0>        -0.1271
      8 C8       -1.8702  -22.4688   -1.4814 C.ar      1 <0>        -0.0597
      9 C9        2.9786  -19.7066   -0.7623 C.ar      1 <0>        -0.1000
     10 C10      -0.6222  -22.0352   -1.9381 C.ar      1 <0>        -0.1999
     11 C11      -1.9415  -24.1390   -3.2316 C.ar      1 <0>         0.0983
     12 C12      -2.5313  -23.5154   -2.1368 C.ar      1 <0>         0.0673
     13 C13       4.5815  -21.5400   -0.2657 C.2       1 <0>         0.6476
     14 C14      -2.4809  -21.8284   -0.2981 C.2       1 <0>         0.9146
     15 C15      -4.0523  -28.9311   -0.9584 C.2       1 <0>         0.9108
     16 C16       9.3196  -25.5411   -1.0036 C.3       1 <0>        -0.0779
     17 C17       8.7101  -25.5701    0.3954 C.3       1 <0>        -0.0825
     18 C18       8.9438  -24.2642   -1.7565 C.3       1 <0>        -0.0774
     19 C19       7.1956  -25.3746    0.3556 C.3       1 <0>        -0.0769
     20 C20       7.4297  -24.0664   -1.7997 C.3       1 <0>        -0.0693
     21 C21      -4.5078  -24.6311   -2.6221 C.3       1 <0>         0.0860
     22 C22       6.8139  -24.0862   -0.3935 C.3       1 <0>        -0.0922
     23 C23      -3.6677  -25.7427   -3.2424 C.3       1 <0>         0.0980
     24 C24       0.6093  -22.2728    0.7825 C.3       1 <0>         0.0570
     25 C25       1.9987  -20.2637    0.2325 C.3       1 <0>         0.1414
     26 C26       0.1154  -20.9220   -1.2542 C.3       1 <0>         0.1854
     27 C27      -4.3094  -27.8725   -2.0398 C.3       1 <0>        -0.1977
     28 C28       5.2942  -23.9407   -0.4662 C.3       1 <0>         0.0835
     29 C29      -3.2347  -26.8133   -2.2404 C.3       1 <0>        -0.0536
     30 N1        4.9236  -22.6606   -1.0346 N.am      1 <0>        -0.5534
     31 N2        1.1681  -21.4030   -0.3192 N.4       1 <0>        -0.6775
     32 O1       -2.1228  -22.2290    0.8694 O.co2     1 <0>        -0.8426
     33 O2       -3.9930  -28.5118    0.2309 O.co2     1 <0>        -0.8482
     34 O3        4.5701  -21.5592    0.9767 O.2       1 <0>        -0.6046
     35 O4       -3.3469  -20.8954   -0.4816 O.co2     1 <0>        -0.7787
     36 O5       -3.9428  -30.1162   -1.4014 O.co2     1 <0>        -0.8529
     37 O6       -3.7438  -23.9106   -1.6290 O.3       1 <0>        -0.2897
     38 O7       -2.5281  -25.1976   -3.8855 O.3       1 <0>        -0.3048
     39 H1        5.4624  -18.2096   -3.3460 H         1 <0>         0.1468
     40 H2        3.2783  -17.1036   -2.9445 H         1 <0>         0.1489
     41 H3        6.0607  -20.2644   -2.1019 H         1 <0>         0.1508
     42 H4        1.6900  -18.0539   -1.2982 H         1 <0>         0.1492
     43 H5        0.9363  -22.3150   -3.4083 H         1 <0>         0.1012
     44 H6       -0.2460  -24.1452   -4.5831 H         1 <0>         0.1495
     45 H7       10.4113  -25.6158   -0.9333 H         1 <0>         0.0543
     46 H8        8.9717  -26.4189   -1.5679 H         1 <0>         0.0416
     47 H9        8.9426  -26.5277    0.8813 H         1 <0>         0.0688
     48 H10       9.1664  -24.7773    1.0057 H         1 <0>         0.0496
     49 H11       9.4140  -23.3958   -1.2710 H         1 <0>         0.0426
     50 H12       9.3397  -24.3073   -2.7777 H         1 <0>         0.0403
     51 H13       6.7299  -26.2469   -0.1289 H         1 <0>         0.0452
     52 H14       6.8078  -25.3413    1.3810 H         1 <0>         0.0253
     53 H15       7.2071  -23.1102   -2.2949 H         1 <0>         0.0376
     54 H16       6.9777  -24.8602   -2.4132 H         1 <0>         0.0409
     55 H17      -4.8399  -23.9190   -3.3929 H         1 <0>         0.0881
     56 H18      -5.4132  -25.0339   -2.1325 H         1 <0>         0.0533
     57 H19       7.1971  -23.2221    0.1660 H         1 <0>         0.0485
     58 H20      -4.2792  -26.2603   -4.0456 H         1 <0>         0.0655
     59 H21      -0.0808  -21.6634    1.3689 H         1 <0>         0.0983
     60 H22       0.0904  -23.1191    0.3176 H         1 <0>         0.1860
     61 H23       1.4471  -22.6143    1.3935 H         1 <0>         0.0675
     62 H24       2.5123  -20.6520    1.1185 H         1 <0>         0.1231
     63 H25       1.2955  -19.4922    0.5655 H         1 <0>         0.0993
     64 H26       0.6207  -20.2639   -1.9767 H         1 <0>         0.0685
     65 H27      -0.5630  -20.2951   -0.6610 H         1 <0>         0.1419
     66 H28      -5.2321  -27.3555   -1.7478 H         1 <0>         0.0232
     67 H29      -4.5162  -28.3902   -2.9869 H         1 <0>         0.0349
     68 H30       4.8539  -24.0036    0.5338 H         1 <0>         0.0560
     69 H31       4.8558  -24.7284   -1.0915 H         1 <0>         0.0743
     70 H32      -2.3001  -27.2486   -2.5894 H         1 <0>         0.0614
     71 H33      -3.0342  -26.3024   -1.2970 H         1 <0>         0.0626
     72 H34       4.8549  -22.6084   -2.0457 H         1 <0>         0.3178
     73 H35       1.8158  -22.0020   -0.8571 H         1 <0>         0.4341
@<TRIPOS>BOND
     1    1    2 ar
     2    1    3 ar
     3    2    4 ar
     4    3    7 ar
     5    4    9 ar
     6    5    6 ar
     7    5   10 ar
     8    6   11 ar
     9    7    9 ar
    10    7   13 1
    11    8   10 ar
    12    8   12 ar
    13    8   14 1
    14    9   25 1
    15   10   26 1
    16   11   12 ar
    17   11   38 1
    18   12   37 1
    19   13   30 am
    20   13   34 2
    21   14   32 1
    22   14   35 2
    23   15   27 1
    24   15   33 1
    25   15   36 2
    26   16   17 1
    27   16   18 1
    28   17   19 1
    29   18   20 1
    30   19   22 1
    31   20   22 1
    32   21   23 1
    33   21   37 1
    34   22   28 1
    35   23   29 1
    36   23   38 1
    37   24   31 1
    38   25   31 1
    39   26   31 1
    40   27   29 1
    41   28   30 1
    42    1   39 1
    43    2   40 1
    44    3   41 1
    45    4   42 1
    46    5   43 1
    47    6   44 1
    48   16   45 1
    49   16   46 1
    50   17   47 1
    51   17   48 1
    52   18   49 1
    53   18   50 1
    54   19   51 1
    55   19   52 1
    56   20   53 1
    57   20   54 1
    58   21   55 1
    59   21   56 1
    60   22   57 1
    61   23   58 1
    62   24   59 1
    63   24   60 1
    64   24   61 1
    65   25   62 1
    66   25   63 1
    67   26   64 1
    68   26   65 1
    69   27   66 1
    70   27   67 1
    71   28   68 1
    72   28   69 1
    73   29   70 1
    74   29   71 1
    75   30   72 1
    76   31   73 1
