@<TRIPOS>MOLECULE
AVX38708_1_2
   56    59     0     0     0
SMALL
USER_CHARGES

@<TRIPOS>ATOM
      1 C1        9.5218  -25.1106   -0.9770 C.ar      1 <0>        -0.1186
      2 C2        5.8275  -18.2919   -2.3363 C.ar      1 <0>        -0.1001
      3 C3        8.6917  -25.7339   -0.0429 C.ar      1 <0>        -0.1363
      4 C4        9.0462  -24.0332   -1.7265 C.ar      1 <0>        -0.1196
      5 C5        4.6537  -17.5530   -2.1879 C.ar      1 <0>        -0.1112
      6 C6        5.8028  -19.6786   -2.1815 C.ar      1 <0>        -0.0893
      7 C7        7.3857  -25.2799    0.1419 C.ar      1 <0>        -0.1167
      8 C8        7.7401  -23.5792   -1.5418 C.ar      1 <0>        -0.0956
      9 C9        3.4554  -18.2009   -1.8845 C.ar      1 <0>        -0.1101
     10 C10       0.6385  -23.0987   -3.8339 C.ar      1 <0>        -0.1180
     11 C11       1.0596  -24.4149   -4.0381 C.ar      1 <0>        -0.1356
     12 C12       4.6044  -20.3265   -1.8780 C.ar      1 <0>        -0.0870
     13 C13       0.7491  -23.3945   -1.4173 C.ar      1 <0>        -0.0718
     14 C14       6.9099  -24.2026   -0.6076 C.ar      1 <0>        -0.0981
     15 C15       3.4307  -19.5877   -1.7295 C.ar      1 <0>        -0.1049
     16 C16       0.4843  -22.5914   -2.5311 C.ar      1 <0>        -0.1521
     17 C17       1.3144  -25.1869   -2.9215 C.ar      1 <0>         0.0750
     18 C18       1.1636  -24.6904   -1.6463 C.ar      1 <0>         0.0818
     19 C19       4.6071  -21.7754   -1.7207 C.2       1 <0>         0.6480
     20 C20       0.5951  -22.8860   -0.0439 C.2       1 <0>         0.9201
     21 C21       1.8247  -26.7464   -1.5081 C.3       1 <0>         0.3166
     22 C22       1.8029  -20.2807   -3.8752 C.3       1 <0>         0.0933
     23 C23       5.5040  -23.7141   -0.4090 C.3       1 <0>         0.1210
     24 C24       2.1281  -20.2585   -1.4024 C.3       1 <0>         0.1586
     25 C25       0.0311  -21.1767   -2.3648 C.3       1 <0>         0.1805
     26 N1        5.3806  -22.2988   -0.6786 N.am      1 <0>        -0.5177
     27 N2        1.1283  -20.1844   -2.5288 N.4       1 <0>        -0.7161
     28 O1        1.5785  -22.2546    0.4966 O.co2     1 <0>        -0.7176
     29 O2        3.9606  -22.4937   -2.5018 O.2       1 <0>        -0.6468
     30 O3       -0.5180  -23.0896    0.5722 O.co2     1 <0>        -0.8827
     31 O4        1.7310  -26.4826   -2.9244 O.3       1 <0>        -0.3356
     32 O5        1.4665  -25.6130   -0.6911 O.3       1 <0>        -0.3053
     33 H1       10.5386  -25.4641   -1.1211 H         1 <0>         0.1257
     34 H2        6.7608  -17.7875   -2.5721 H         1 <0>         0.1452
     35 H3        9.0621  -26.5729    0.5404 H         1 <0>         0.1217
     36 H4        9.6922  -23.5484   -2.4544 H         1 <0>         0.1323
     37 H5        4.6736  -16.4731   -2.3075 H         1 <0>         0.1423
     38 H6        6.7240  -20.2434   -2.2989 H         1 <0>         0.1532
     39 H7        6.7456  -25.7722    0.8714 H         1 <0>         0.1165
     40 H8        7.3777  -22.7394   -2.1304 H         1 <0>         0.1336
     41 H9        2.5466  -17.6158   -1.7704 H         1 <0>         0.1320
     42 H10       0.4302  -22.4676   -4.6959 H         1 <0>         0.1273
     43 H11       1.1798  -24.8099   -5.0408 H         1 <0>         0.1554
     44 H12       1.1586  -27.5819   -1.2608 H         1 <0>         0.0699
     45 H13       2.8550  -27.0369   -1.2735 H         1 <0>         0.0766
     46 H14       2.2566  -21.2706   -3.9503 H         1 <0>         0.0646
     47 H15       1.0397  -20.1391   -4.6430 H         1 <0>         0.1027
     48 H16       2.5611  -19.4963   -3.9272 H         1 <0>         0.0927
     49 H17       4.8133  -24.2451   -1.0732 H         1 <0>         0.0756
     50 H18       5.1674  -23.8913    0.6194 H         1 <0>         0.0533
     51 H19       2.2740  -21.3213   -1.1800 H         1 <0>         0.1235
     52 H20       1.6534  -19.7981   -0.5287 H         1 <0>         0.0746
     53 H21      -0.7380  -20.9120   -3.1017 H         1 <0>         0.1225
     54 H22      -0.3956  -21.0077   -1.3671 H         1 <0>         0.0652
     55 H23       5.9388  -21.6704   -0.1099 H         1 <0>         0.3613
     56 H24       0.7087  -19.2413   -2.4840 H         1 <0>         0.5239
@<TRIPOS>BOND
     1    1    3 ar
     2    1    4 ar
     3    2    5 ar
     4    2    6 ar
     5    3    7 ar
     6    4    8 ar
     7    5    9 ar
     8    6   12 ar
     9    7   14 ar
    10    8   14 ar
    11    9   15 ar
    12   10   11 ar
    13   10   16 ar
    14   11   17 ar
    15   12   15 ar
    16   12   19 1
    17   13   16 ar
    18   13   18 ar
    19   13   20 1
    20   14   23 1
    21   15   24 1
    22   16   25 1
    23   17   18 ar
    24   17   31 1
    25   18   32 1
    26   19   26 am
    27   19   29 2
    28   20   28 1
    29   20   30 2
    30   21   31 1
    31   21   32 1
    32   22   27 1
    33   23   26 1
    34   24   27 1
    35   25   27 1
    36    1   33 1
    37    2   34 1
    38    3   35 1
    39    4   36 1
    40    5   37 1
    41    6   38 1
    42    7   39 1
    43    8   40 1
    44    9   41 1
    45   10   42 1
    46   11   43 1
    47   21   44 1
    48   21   45 1
    49   22   46 1
    50   22   47 1
    51   22   48 1
    52   23   49 1
    53   23   50 1
    54   24   51 1
    55   24   52 1
    56   25   53 1
    57   25   54 1
    58   26   55 1
    59   27   56 1
@<TRIPOS>MOLECULE
AVX38708_1_2
   56    59     0     0     0
SMALL
USER_CHARGES

@<TRIPOS>ATOM
      1 C1        8.6429  -41.8442    0.4140 C.ar      1 <0>        -0.1186
      2 C2       10.8623  -48.4824    5.5711 C.ar      1 <0>        -0.1001
      3 C3        7.3155  -42.0089    0.8093 C.ar      1 <0>        -0.1363
      4 C4        9.5469  -42.8983    0.5490 C.ar      1 <0>        -0.1196
      5 C5       11.7790  -49.3141    4.9279 C.ar      1 <0>        -0.1112
      6 C6        9.7816  -47.9559    4.8611 C.ar      1 <0>        -0.0893
      7 C7        6.8919  -43.2277    1.3397 C.ar      1 <0>        -0.1167
      8 C8        9.1232  -44.1170    1.0794 C.ar      1 <0>        -0.0956
      9 C9       11.6150  -49.6191    3.5748 C.ar      1 <0>        -0.1101
     10 C10      11.4428  -46.1995   -1.8579 C.ar      1 <0>        -0.1180
     11 C11      12.2555  -45.5343   -2.7793 C.ar      1 <0>        -0.1356
     12 C12       9.6176  -48.2609    3.5081 C.ar      1 <0>        -0.0870
     13 C13      13.2686  -46.2922   -0.2453 C.ar      1 <0>        -0.0718
     14 C14       7.8422  -44.2816    1.4526 C.ar      1 <0>        -0.0981
     15 C15      10.5343  -49.0925    2.8648 C.ar      1 <0>        -0.1049
     16 C16      11.9464  -46.5762   -0.5981 C.ar      1 <0>        -0.1521
     17 C17      13.5572  -45.2658   -2.4062 C.ar      1 <0>         0.0750
     18 C18      14.0502  -45.6344   -1.1732 C.ar      1 <0>         0.0818
     19 C19       8.4808  -47.6969    2.7903 C.2       1 <0>         0.6480
     20 C20      13.8184  -46.6763    1.0673 C.2       1 <0>         0.9201
     21 C21      15.6247  -44.6398   -2.2745 C.3       1 <0>         0.3166
     22 C22      11.5588  -49.4391   -0.7888 C.3       1 <0>         0.0933
     23 C23       7.3399  -45.5936    2.0459 C.3       1 <0>         0.1210
     24 C24      10.3828  -49.4365    1.4103 C.3       1 <0>         0.1586
     25 C25      11.0373  -47.2862    0.3528 C.3       1 <0>         0.1805
     26 N1        8.4157  -46.3025    2.7034 N.am      1 <0>        -0.5177
     27 N2       11.3761  -48.7244    0.5272 N.4       1 <0>        -0.7161
     28 O1       15.0243  -46.3305    1.3606 O.co2     1 <0>        -0.7176
     29 O2        7.6108  -48.4401    2.3044 O.2       1 <0>        -0.6468
     30 O3       13.0757  -47.3458    1.8791 O.co2     1 <0>        -0.8827
     31 O4       14.4893  -44.6297   -3.1667 O.3       1 <0>        -0.3356
     32 O5       15.3528  -45.2755   -1.0074 O.3       1 <0>        -0.3053
     33 H1        8.9728  -40.8952    0.0014 H         1 <0>         0.1257
     34 H2       10.9901  -48.2443    6.6246 H         1 <0>         0.1452
     35 H3        6.6119  -41.1881    0.7044 H         1 <0>         0.1217
     36 H4       10.5806  -42.7697    0.2419 H         1 <0>         0.1323
     37 H5       12.6210  -49.7229    5.4808 H         1 <0>         0.1423
     38 H6        9.0743  -47.3084    5.3732 H         1 <0>         0.1532
     39 H7        5.8559  -43.3467    1.6459 H         1 <0>         0.1165
     40 H8        9.8345  -44.9327    1.1811 H         1 <0>         0.1336
     41 H9       12.3353  -50.2677    3.0831 H         1 <0>         0.1320
     42 H10      10.4125  -46.4243   -2.1255 H         1 <0>         0.1273
     43 H11      11.8712  -45.2420   -3.7515 H         1 <0>         0.1554
     44 H12      16.4495  -45.1705   -2.7635 H         1 <0>         0.0699
     45 H13      15.9332  -43.6048   -2.0887 H         1 <0>         0.0766
     46 H14      10.6089  -49.3993   -1.3267 H         1 <0>         0.0646
     47 H15      12.3448  -48.9230   -1.3435 H         1 <0>         0.1027
     48 H16      11.8442  -50.4702   -0.5706 H         1 <0>         0.0927
     49 H17       6.5412  -45.4392    2.7799 H         1 <0>         0.0756
     50 H18       6.9395  -46.2441    1.2600 H         1 <0>         0.0533
     51 H19      10.5240  -50.5093    1.2409 H         1 <0>         0.1235
     52 H20       9.3862  -49.1687    1.0407 H         1 <0>         0.0746
     53 H21      11.0720  -46.8365    1.3542 H         1 <0>         0.1225
     54 H22       9.9945  -47.2514    0.0108 H         1 <0>         0.0652
     55 H23       9.1201  -45.7418    3.1728 H         1 <0>         0.3613
     56 H24      12.2868  -48.7766    1.0146 H         1 <0>         0.5239
@<TRIPOS>BOND
     1    1    3 ar
     2    1    4 ar
     3    2    5 ar
     4    2    6 ar
     5    3    7 ar
     6    4    8 ar
     7    5    9 ar
     8    6   12 ar
     9    7   14 ar
    10    8   14 ar
    11    9   15 ar
    12   10   11 ar
    13   10   16 ar
    14   11   17 ar
    15   12   15 ar
    16   12   19 1
    17   13   16 ar
    18   13   18 ar
    19   13   20 1
    20   14   23 1
    21   15   24 1
    22   16   25 1
    23   17   18 ar
    24   17   31 1
    25   18   32 1
    26   19   26 am
    27   19   29 2
    28   20   28 1
    29   20   30 2
    30   21   31 1
    31   21   32 1
    32   22   27 1
    33   23   26 1
    34   24   27 1
    35   25   27 1
    36    1   33 1
    37    2   34 1
    38    3   35 1
    39    4   36 1
    40    5   37 1
    41    6   38 1
    42    7   39 1
    43    8   40 1
    44    9   41 1
    45   10   42 1
    46   11   43 1
    47   21   44 1
    48   21   45 1
    49   22   46 1
    50   22   47 1
    51   22   48 1
    52   23   49 1
    53   23   50 1
    54   24   51 1
    55   24   52 1
    56   25   53 1
    57   25   54 1
    58   26   55 1
    59   27   56 1
