@<TRIPOS>MOLECULE
AVX38785_1_1
   67    70     0     0     0
SMALL
USER_CHARGES

@<TRIPOS>ATOM
      1 C1        7.3513  -42.9668    0.0688 C.ar      1 <0>        -0.1093
      2 C2       10.9499  -48.5885    5.4748 C.ar      1 <0>        -0.1051
      3 C3        7.5365  -42.5395    1.3866 C.ar      1 <0>        -0.1324
      4 C4        6.9304  -44.2719   -0.1862 C.ar      1 <0>        -0.1185
      5 C5       11.6946  -49.4481    4.6656 C.ar      1 <0>        -0.1135
      6 C6        9.7826  -48.0053    4.9806 C.ar      1 <0>        -0.0910
      7 C7        7.3008  -43.4170    2.4495 C.ar      1 <0>        -0.1172
      8 C8        6.6946  -45.1495    0.8766 C.ar      1 <0>        -0.0981
      9 C9       11.2720  -49.7244    3.3620 C.ar      1 <0>        -0.1106
     10 C10      10.8408  -45.9303   -1.5450 C.ar      1 <0>        -0.1255
     11 C11      11.6433  -45.3095   -2.5064 C.ar      1 <0>        -0.1489
     12 C12       9.3599  -48.2816    3.6771 C.ar      1 <0>        -0.0865
     13 C13      12.8116  -46.7964   -0.4414 C.ar      1 <0>        -0.0780
     14 C14       6.8800  -44.7222    2.1944 C.ar      1 <0>        -0.1041
     15 C15      10.1046  -49.1412    2.8677 C.ar      1 <0>        -0.0962
     16 C16      11.4239  -46.6772   -0.5173 C.ar      1 <0>        -0.1801
     17 C17      13.0304  -45.4400   -2.4391 C.ar      1 <0>         0.0976
     18 C18      13.6152  -46.1644   -1.3945 C.ar      1 <0>         0.0769
     19 C19       8.1378  -47.6585    3.1859 C.2       1 <0>         0.6485
     20 C20      13.4254  -47.5790    0.6545 C.2       1 <0>         0.9227
     21 C21      18.2010  -44.0512   -5.5569 C.2       1 <0>         0.9110
     22 C22      15.6886  -45.3503   -2.0524 C.3       1 <0>         0.0868
     23 C23      15.1153  -45.3028   -3.4665 C.3       1 <0>         0.0975
     24 C24      10.2312  -49.3308   -0.9717 C.3       1 <0>         0.0942
     25 C25       6.6265  -45.6668    3.3384 C.3       1 <0>         0.1249
     26 C26       9.6738  -49.4554    1.4619 C.3       1 <0>         0.1566
     27 C27      10.5352  -47.3354    0.4918 C.3       1 <0>         0.1886
     28 C28      17.2539  -44.9502   -4.7492 C.3       1 <0>        -0.1995
     29 C29      15.9118  -44.3601   -4.3608 C.3       1 <0>        -0.0531
     30 N1        7.8154  -46.4014    3.7077 N.am      1 <0>        -0.5184
     31 N2       10.5558  -48.8208    0.4126 N.4       1 <0>        -0.7172
     32 O1       13.7396  -46.9727    1.7456 O.co2     1 <0>        -0.7301
     33 O2       19.3085  -44.5552   -5.8896 O.co2     1 <0>        -0.8481
     34 O3        7.4203  -48.2456    2.3572 O.2       1 <0>        -0.6511
     35 O4       13.6219  -48.8362    0.4749 O.co2     1 <0>        -0.8972
     36 O5       17.7389  -42.8998   -5.8044 O.co2     1 <0>        -0.8514
     37 O6       14.9711  -46.3007   -1.2551 O.3       1 <0>        -0.2984
     38 O7       13.7638  -44.8249   -3.4232 O.3       1 <0>        -0.2990
     39 H1        7.5351  -42.2837   -0.7586 H         1 <0>         0.1375
     40 H2       11.2792  -48.3728    6.4898 H         1 <0>         0.1401
     41 H3        7.8645  -41.5234    1.5851 H         1 <0>         0.1260
     42 H4        6.7870  -44.6051   -1.2124 H         1 <0>         0.1329
     43 H5       12.6041  -49.9011    5.0503 H         1 <0>         0.1378
     44 H6        9.2112  -47.3365    5.6207 H         1 <0>         0.1499
     45 H7        7.4485  -43.0754    3.4731 H         1 <0>         0.1127
     46 H8        6.3672  -46.1646    0.6683 H         1 <0>         0.1275
     47 H9       11.8597  -50.3952    2.7396 H         1 <0>         0.1311
     48 H10       9.7606  -45.8297   -1.6083 H         1 <0>         0.1149
     49 H11      11.1809  -44.7371   -3.3086 H         1 <0>         0.1534
     50 H12      16.7375  -45.6635   -2.0706 H         1 <0>         0.0847
     51 H13      15.6347  -44.3730   -1.5553 H         1 <0>         0.0610
     52 H14      15.1068  -46.3046   -3.9156 H         1 <0>         0.0561
     53 H15       9.2150  -49.0147   -1.2143 H         1 <0>         0.0594
     54 H16      10.9534  -48.8977   -1.6694 H         1 <0>         0.1128
     55 H17      10.3091  -50.4195   -0.9518 H         1 <0>         0.0840
     56 H18       6.2800  -45.1209    4.2247 H         1 <0>         0.0700
     57 H19       5.8498  -46.3944    3.0810 H         1 <0>         0.0461
     58 H20       9.6908  -50.5344    1.2753 H         1 <0>         0.1162
     59 H21       8.6554  -49.0999    1.2717 H         1 <0>         0.0709
     60 H22      10.8273  -47.0763    1.5200 H         1 <0>         0.1151
     61 H23       9.4884  -47.0326    0.3617 H         1 <0>         0.0570
     62 H24      17.7860  -45.2034   -3.8211 H         1 <0>         0.0212
     63 H25      17.1086  -45.8865   -5.3025 H         1 <0>         0.0371
     64 H26      15.3062  -44.1226   -5.2361 H         1 <0>         0.0665
     65 H27      16.0630  -43.4393   -3.7979 H         1 <0>         0.0590
     66 H28       8.4042  -45.9958    4.4292 H         1 <0>         0.3650
     67 H29      11.5194  -49.1328    0.6165 H         1 <0>         0.5271
@<TRIPOS>BOND
     1    1    3 ar
     2    1    4 ar
     3    2    5 ar
     4    2    6 ar
     5    3    7 ar
     6    4    8 ar
     7    5    9 ar
     8    6   12 ar
     9    7   14 ar
    10    8   14 ar
    11    9   15 ar
    12   10   11 ar
    13   10   16 ar
    14   11   17 ar
    15   12   15 ar
    16   12   19 1
    17   13   16 ar
    18   13   18 ar
    19   13   20 1
    20   14   25 1
    21   15   26 1
    22   16   27 1
    23   17   18 ar
    24   17   38 1
    25   18   37 1
    26   19   30 am
    27   19   34 2
    28   20   32 1
    29   20   35 2
    30   21   28 1
    31   21   33 1
    32   21   36 2
    33   22   23 1
    34   22   37 1
    35   23   29 1
    36   23   38 1
    37   24   31 1
    38   25   30 1
    39   26   31 1
    40   27   31 1
    41   28   29 1
    42    1   39 1
    43    2   40 1
    44    3   41 1
    45    4   42 1
    46    5   43 1
    47    6   44 1
    48    7   45 1
    49    8   46 1
    50    9   47 1
    51   10   48 1
    52   11   49 1
    53   22   50 1
    54   22   51 1
    55   23   52 1
    56   24   53 1
    57   24   54 1
    58   24   55 1
    59   25   56 1
    60   25   57 1
    61   26   58 1
    62   26   59 1
    63   27   60 1
    64   27   61 1
    65   28   62 1
    66   28   63 1
    67   29   64 1
    68   29   65 1
    69   30   66 1
    70   31   67 1
