@<TRIPOS>MOLECULE
AVX38742_3_1
   47    50     0     0     0
SMALL
NO_CHARGES

@<TRIPOS>ATOM
      1 C1        9.6556  -41.6369   -0.8139 C.ar      1 MOL         -0.133000
      2 C2        8.6172  -41.0892   -0.0429 C.ar      1 MOL         -0.101200
      3 C3       10.0885  -42.9535   -0.6053 C.ar      1 MOL         -0.081600
      4 C4       10.9964  -45.2321   -1.9457 C.ar      1 MOL         -0.061300
      5 C5        7.9939  -41.8487    0.9507 C.ar      1 MOL         -0.120000
      6 C6       11.8554  -44.9406   -3.0057 C.ar      1 MOL         -0.156800
      7 C7        9.4671  -43.7044    0.3819 C.ar      1 MOL         -0.077800
      8 C8       11.5171  -45.6492   -0.7158 C.ar      1 MOL         0.021900
      9 C9       12.8988  -45.7654   -0.5387 C.ar      1 MOL         -0.115300
     10 C10       8.4246  -43.1551    1.1567 C.ar      1 MOL         -0.069500
     11 C11      13.2366  -45.0702   -2.8334 C.ar      1 MOL         0.140500
     12 C12      13.7590  -45.4609   -1.5941 C.ar      1 MOL         0.098700
     13 C13       9.6954  -45.0821    0.8263 C.2       1 MOL         -0.051600
     14 C14       8.7312  -45.3680    1.9307 C.2       1 MOL         0.382300
     15 C15      10.5839  -45.9509    0.3631 C.2       1 MOL         -0.127400
     16 C16      13.4582  -46.1983    0.7653 C.2       1 MOL         0.919400
     17 C17      18.4983  -45.7354   -4.1366 C.2       1 MOL         0.903100
     18 C18       7.8824  -44.1280    2.1744 C.3       1 MOL         -0.064000
     19 C19      15.8822  -44.9166   -2.3601 C.3       1 MOL         0.083100
     20 C20      15.3673  -45.2838   -3.7471 C.3       1 MOL         0.101700
     21 C21      17.6615  -44.4679   -4.3812 C.3       1 MOL         -0.106300
     22 C22      16.2266  -44.6644   -4.8401 C.3       1 MOL         -0.068500
     23 N1        8.5674  -46.4436    2.6199 N.2       1 MOL         -0.407000
     24 O1       13.8680  -45.2969    1.5830 O.co2     1 MOL         -0.595100
     25 O2       19.6369  -45.5710   -3.6139 O.co2     1 MOL         -0.594800
     26 O3       13.5121  -47.4578    1.0270 O.co2     1 MOL         -0.607400
     27 O4       17.9259  -46.8082   -4.4840 O.co2     1 MOL         -0.585300
     28 O5       15.1057  -45.5739   -1.3530 O.3       1 MOL         -0.244900
     29 O6       14.0271  -44.7897   -3.9167 O.3       1 MOL         -0.273000
     30 O7        9.4818  -47.4064    2.1751 O.3       1 MOL         -0.356800
     31 H1       10.1278  -41.0285   -1.5820 H         1 MOL         0.137600
     32 H2        8.2962  -40.0630   -0.2220 H         1 MOL         0.138600
     33 H3       10.8923  -43.3626   -1.2093 H         1 MOL         0.131000
     34 H4        9.9217  -45.1325   -2.0972 H         1 MOL         0.175200
     35 H5        7.1921  -41.4211    1.5446 H         1 MOL         0.142400
     36 H6       11.4414  -44.6248   -3.9628 H         1 MOL         0.179700
     37 H7       10.6191  -46.9487    0.7718 H         1 MOL         0.187700
     38 H8        8.0382  -43.7686    3.1957 H         1 MOL         0.091200
     39 H9        6.8277  -44.3522    1.9866 H         1 MOL         0.081500
     40 H10      16.9229  -45.2419   -2.2311 H         1 MOL         0.119600
     41 H11      15.8371  -43.8328   -2.1825 H         1 MOL         0.083600
     42 H12      15.3482  -46.3762   -3.8733 H         1 MOL         0.095900
     43 H13      18.1839  -43.9018   -5.1634 H         1 MOL         0.077100
     44 H14      17.6858  -43.8555   -3.4714 H         1 MOL         0.089300
     45 H15      16.1660  -45.2995   -5.7222 H         1 MOL         0.090300
     46 H16      15.7804  -43.6994   -5.0934 H         1 MOL         0.078500
     47 H17       9.2737  -48.1628    2.7525 H         1 MOL         0.448500
@<TRIPOS>BOND
     1    1    2 ar
     2    1    3 ar
     3    2    5 ar
     4    3    7 ar
     5    4    6 ar
     6    4    8 ar
     7    5   10 ar
     8    6   11 ar
     9    7   10 ar
    10    7   13 1
    11    8    9 ar
    12    8   15 1
    13    9   12 ar
    14    9   16 1
    15   10   18 1
    16   11   12 ar
    17   11   29 1
    18   12   28 1
    19   13   14 1
    20   13   15 2
    21   14   18 1
    22   14   23 2
    23   16   24 1
    24   16   26 2
    25   17   21 1
    26   17   25 1
    27   17   27 2
    28   19   20 1
    29   19   28 1
    30   20   22 1
    31   20   29 1
    32   21   22 1
    33   23   30 1
    34    1   31 1
    35    2   32 1
    36    3   33 1
    37    4   34 1
    38    5   35 1
    39    6   36 1
    40   15   37 1
    41   18   38 1
    42   18   39 1
    43   19   40 1
    44   19   41 1
    45   20   42 1
    46   21   43 1
    47   21   44 1
    48   22   45 1
    49   22   46 1
    50   30   47 1
