@<TRIPOS>MOLECULE
AVX38672_0_1
   58    60     0     0     0
SMALL
USER_CHARGES

@<TRIPOS>ATOM
      1 C1        6.9457  -30.5313  -20.6564 C.ar      1 <0>        -0.1300
      2 C2        6.2402  -29.5891  -19.9076 C.ar      1 <0>        -0.1347
      3 C3        7.8007  -30.1129  -21.6760 C.ar      1 <0>        -0.1300
      4 C4        6.3896  -28.2288  -20.1785 C.ar      1 <0>        -0.1194
      5 C5        7.9500  -28.7526  -21.9468 C.ar      1 <0>        -0.0946
      6 C6       11.9459  -26.9300  -21.7202 C.ar      1 <0>        -0.1338
      7 C7       12.9758  -27.6161  -21.0722 C.ar      1 <0>        -0.1507
      8 C8       13.3903  -26.4762  -23.6266 C.ar      1 <0>        -0.0636
      9 C9        7.2446  -27.8104  -21.1980 C.ar      1 <0>        -0.1025
     10 C10      12.1519  -26.3635  -22.9902 C.ar      1 <0>        -0.1102
     11 C11      14.1887  -27.7130  -21.7222 C.ar      1 <0>         0.0384
     12 C12      14.3905  -27.1585  -22.9652 C.ar      1 <0>         0.0594
     13 C13      13.6300  -25.8916  -24.9558 C.2       1 <0>         0.9214
     14 C14       6.3596  -25.8385  -22.4811 C.2       1 <0>         0.6593
     15 C15       9.1483  -24.7274  -22.2345 C.2       1 <0>         0.7661
     16 C16      16.2243  -28.1175  -22.3339 C.3       1 <0>         0.3189
     17 C17       2.8389  -24.8579  -21.5862 C.3       1 <0>        -0.1071
     18 C18       4.3162  -23.7428  -23.2777 C.3       1 <0>        -0.1095
     19 C19       3.5927  -26.1202  -23.6142 C.3       1 <0>        -0.1084
     20 C20      11.2985  -23.4670  -22.4917 C.3       1 <0>         0.0459
     21 C21      11.0139  -25.6360  -23.6452 C.3       1 <0>         0.1298
     22 C22       7.4062  -26.3367  -21.4915 C.3       1 <0>         0.1124
     23 C23       3.9912  -25.0655  -22.5756 C.3       1 <0>         0.1299
     24 N1        5.1609  -25.5199  -21.8585 N.am      1 <0>        -0.5681
     25 N2        8.7142  -26.0339  -22.0271 N.am      1 <0>        -0.5840
     26 N3       10.4435  -24.6130  -22.7719 N.am      1 <0>        -0.4364
     27 O1       13.2533  -26.5474  -25.9978 O.co2     1 <0>        -0.8004
     28 O2       14.2087  -24.7437  -25.0328 O.co2     1 <0>        -0.8278
     29 O3        6.5646  -25.7733  -23.6915 O.2       1 <0>        -0.6183
     30 O4        8.4388  -23.7513  -21.9721 O.2       1 <0>        -0.6679
     31 O5       15.3000  -28.3401  -21.2495 O.3       1 <0>        -0.3581
     32 O6       15.6533  -27.3687  -23.4262 O.3       1 <0>        -0.3145
     33 H1        6.8293  -31.5905  -20.4459 H         1 <0>         0.1228
     34 H2        5.5743  -29.9151  -19.1140 H         1 <0>         0.1265
     35 H3        8.3494  -30.8465  -22.2597 H         1 <0>         0.1317
     36 H4        5.8352  -27.5018  -19.5902 H         1 <0>         0.1215
     37 H5        8.6182  -28.4357  -22.7433 H         1 <0>         0.1451
     38 H6       10.9793  -26.8381  -21.2311 H         1 <0>         0.1270
     39 H7       12.8212  -28.0544  -20.0931 H         1 <0>         0.1308
     40 H8       17.0918  -27.5700  -21.9483 H         1 <0>         0.0494
     41 H9       16.5611  -29.0897  -22.7121 H         1 <0>         0.0517
     42 H10       2.5870  -25.7918  -21.0701 H         1 <0>         0.0359
     43 H11       3.0954  -24.1120  -20.8260 H         1 <0>         0.0389
     44 H12       1.9328  -24.5174  -22.1008 H         1 <0>         0.0443
     45 H13       5.1389  -23.8662  -23.9915 H         1 <0>         0.0714
     46 H14       4.6259  -22.9778  -22.5562 H         1 <0>         0.0387
     47 H15       3.4490  -23.3580  -23.8255 H         1 <0>         0.0307
     48 H16       4.4002  -26.2887  -24.3361 H         1 <0>         0.0726
     49 H17       3.3589  -27.0796  -23.1394 H         1 <0>         0.0334
     50 H18       2.7110  -25.8022  -24.1829 H         1 <0>         0.0312
     51 H19      11.9018  -23.6576  -21.6004 H         1 <0>         0.0191
     52 H20      10.6904  -22.5743  -22.3210 H         1 <0>         0.0178
     53 H21      11.9674  -23.2791  -23.3357 H         1 <0>         0.1293
     54 H22      11.3482  -25.1450  -24.5656 H         1 <0>         0.1057
     55 H23      10.2108  -26.3282  -23.9189 H         1 <0>         0.0789
     56 H24       7.3284  -25.7504  -20.5680 H         1 <0>         0.0983
     57 H25       5.0856  -25.6068  -20.8494 H         1 <0>         0.3107
     58 H26       9.3365  -26.7989  -22.2594 H         1 <0>         0.3251
@<TRIPOS>BOND
     1    1    2 ar
     2    1    3 ar
     3    2    4 ar
     4    3    5 ar
     5    4    9 ar
     6    5    9 ar
     7    6    7 ar
     8    6   10 ar
     9    7   11 ar
    10    8   10 ar
    11    8   12 ar
    12    8   13 1
    13    9   22 1
    14   10   21 1
    15   11   12 ar
    16   11   31 1
    17   12   32 1
    18   13   27 1
    19   13   28 2
    20   14   22 1
    21   14   24 am
    22   14   29 2
    23   15   25 am
    24   15   26 am
    25   15   30 2
    26   16   31 1
    27   16   32 1
    28   17   23 1
    29   18   23 1
    30   19   23 1
    31   20   26 1
    32   21   26 1
    33   22   25 1
    34   23   24 1
    35    1   33 1
    36    2   34 1
    37    3   35 1
    38    4   36 1
    39    5   37 1
    40    6   38 1
    41    7   39 1
    42   16   40 1
    43   16   41 1
    44   17   42 1
    45   17   43 1
    46   17   44 1
    47   18   45 1
    48   18   46 1
    49   18   47 1
    50   19   48 1
    51   19   49 1
    52   19   50 1
    53   20   51 1
    54   20   52 1
    55   20   53 1
    56   21   54 1
    57   21   55 1
    58   22   56 1
    59   24   57 1
    60   25   58 1
