@<TRIPOS>MOLECULE
AVX38788_1_4
   67    70     0     0     0
SMALL
USER_CHARGES

@<TRIPOS>ATOM
      1 C1       11.3428  -48.7995    5.3376 C.ar      1 <0>        -0.1059
      2 C2       11.8611  -49.7492    4.4574 C.ar      1 <0>        -0.0978
      3 C3       10.3062  -47.9603    4.9267 C.ar      1 <0>        -0.1049
      4 C4       11.3429  -49.8599    3.1663 C.ar      1 <0>        -0.0856
      5 C5       11.0323  -45.8978   -1.8913 C.ar      1 <0>        -0.1266
      6 C6       11.8844  -45.3402   -2.8460 C.ar      1 <0>        -0.1508
      7 C7        9.7880  -48.0709    3.6356 C.ar      1 <0>        -0.1098
      8 C8       12.9412  -46.5706   -0.5670 C.ar      1 <0>        -0.0861
      9 C9       10.3063  -49.0207    2.7553 C.ar      1 <0>        -0.0906
     10 C10      11.5601  -46.5170   -0.7562 C.ar      1 <0>        -0.1819
     11 C11      13.2661  -45.4058   -2.6642 C.ar      1 <0>         0.0952
     12 C12      13.7935  -46.0011   -1.5147 C.ar      1 <0>         0.0798
     13 C13       8.7064  -47.1816    3.2322 C.2       1 <0>         0.6578
     14 C14      13.4957  -47.2175    0.6414 C.2       1 <0>         0.9202
     15 C15      18.1392  -46.1745   -4.6153 C.2       1 <0>         0.9097
     16 C16       8.9046  -42.6400   -0.2632 C.3       1 <0>        -0.0933
     17 C17       7.8568  -42.8036    0.8584 C.3       1 <0>        -0.0944
     18 C18       9.3617  -44.0785    0.0613 C.3       1 <0>        -0.0858
     19 C19      15.8822  -45.1688   -2.0948 C.3       1 <0>         0.0882
     20 C20       8.7978  -43.8569    1.4811 C.3       1 <0>        -0.1174
     21 C21      15.4178  -45.2826   -3.5416 C.3       1 <0>         0.0992
     22 C22      10.4678  -49.2467   -1.0314 C.3       1 <0>         0.0994
     23 C23       9.7686  -49.1610    1.3608 C.3       1 <0>         0.1598
     24 C24      10.6198  -47.1108    0.2432 C.3       1 <0>         0.1860
     25 C25      17.7271  -44.7186   -4.3668 C.3       1 <0>        -0.1973
     26 C26       8.1095  -45.0413    2.0713 C.3       1 <0>         0.1013
     27 C27      16.2477  -44.3984   -4.4626 C.3       1 <0>        -0.0555
     28 N1        9.0636  -46.0308    2.5199 N.am      1 <0>        -0.5532
     29 N2       10.6920  -48.5960    0.3103 N.4       1 <0>        -0.7377
     30 O1       13.6107  -46.5191    1.7143 O.co2     1 <0>        -0.7322
     31 O2       19.1205  -46.6037   -3.9481 O.co2     1 <0>        -0.8473
     32 O3        7.5306  -47.4438    3.5368 O.2       1 <0>        -0.6217
     33 O4       13.8422  -48.4537    0.5736 O.co2     1 <0>        -0.8635
     34 O5       17.4219  -46.7778   -5.4646 O.co2     1 <0>        -0.8521
     35 O6       15.1387  -46.0669   -1.2631 O.3       1 <0>        -0.3001
     36 O7       14.0513  -44.8589   -3.6460 O.3       1 <0>        -0.3013
     37 H1       11.7465  -48.7127    6.3431 H         1 <0>         0.1390
     38 H2       12.6689  -50.4018    4.7775 H         1 <0>         0.1460
     39 H3        9.9112  -47.2236    5.6216 H         1 <0>         0.1424
     40 H4       11.7542  -50.6030    2.4882 H         1 <0>         0.1464
     41 H5        9.9572  -45.8486   -2.0435 H         1 <0>         0.1176
     42 H6       11.4655  -44.8675   -3.7314 H         1 <0>         0.1544
     43 H7        8.4733  -42.5228   -1.2648 H         1 <0>         0.0510
     44 H8        9.6510  -41.8576   -0.1057 H         1 <0>         0.0538
     45 H9        7.7305  -41.9065    1.4758 H         1 <0>         0.0681
     46 H10       6.8716  -43.1538    0.5398 H         1 <0>         0.0537
     47 H11       8.8970  -44.8692   -0.5331 H         1 <0>         0.0469
     48 H12      10.4499  -44.2097    0.0354 H         1 <0>         0.0490
     49 H13      16.9396  -45.4387   -2.0042 H         1 <0>         0.0861
     50 H14      15.7571  -44.1504   -1.7045 H         1 <0>         0.0597
     51 H15       9.5242  -43.4420    2.1886 H         1 <0>         0.0575
     52 H16      15.4781  -46.3233   -3.8866 H         1 <0>         0.0597
     53 H17       9.4588  -48.9926   -1.3618 H         1 <0>         0.0612
     54 H18      11.2170  -48.8549   -1.7230 H         1 <0>         0.1141
     55 H19      10.5786  -50.3255   -0.9012 H         1 <0>         0.0682
     56 H20       9.6059  -50.2135    1.1041 H         1 <0>         0.0779
     57 H21       8.8118  -48.6388    1.2509 H         1 <0>         0.1050
     58 H22      10.8265  -46.7453    1.2576 H         1 <0>         0.1062
     59 H23       9.5767  -46.8609    0.0098 H         1 <0>         0.0664
     60 H24      18.2471  -44.1200   -5.1264 H         1 <0>         0.0216
     61 H25      18.1179  -44.4084   -3.3893 H         1 <0>         0.0357
     62 H26       7.4601  -45.5155    1.3291 H         1 <0>         0.0695
     63 H27       7.5037  -44.7486    2.9341 H         1 <0>         0.0539
     64 H28      15.8721  -44.5151   -5.4782 H         1 <0>         0.0642
     65 H29      16.0738  -43.3662   -4.1595 H         1 <0>         0.0641
     66 H30      10.0450  -45.8340    2.3531 H         1 <0>         0.3250
     67 H31      11.6507  -48.8516    0.5990 H         1 <0>         0.5323
@<TRIPOS>BOND
     1    1    2 ar
     2    1    3 ar
     3    2    4 ar
     4    3    7 ar
     5    4    9 ar
     6    5    6 ar
     7    5   10 ar
     8    6   11 ar
     9    7    9 ar
    10    7   13 1
    11    8   10 ar
    12    8   12 ar
    13    8   14 1
    14    9   23 1
    15   10   24 1
    16   11   12 ar
    17   11   36 1
    18   12   35 1
    19   13   28 am
    20   13   32 2
    21   14   30 1
    22   14   33 2
    23   15   25 1
    24   15   31 1
    25   15   34 2
    26   16   17 1
    27   16   18 1
    28   17   20 1
    29   18   20 1
    30   19   21 1
    31   19   35 1
    32   20   26 1
    33   21   27 1
    34   21   36 1
    35   22   29 1
    36   23   29 1
    37   24   29 1
    38   25   27 1
    39   26   28 1
    40    1   37 1
    41    2   38 1
    42    3   39 1
    43    4   40 1
    44    5   41 1
    45    6   42 1
    46   16   43 1
    47   16   44 1
    48   17   45 1
    49   17   46 1
    50   18   47 1
    51   18   48 1
    52   19   49 1
    53   19   50 1
    54   20   51 1
    55   21   52 1
    56   22   53 1
    57   22   54 1
    58   22   55 1
    59   23   56 1
    60   23   57 1
    61   24   58 1
    62   24   59 1
    63   25   60 1
    64   25   61 1
    65   26   62 1
    66   26   63 1
    67   27   64 1
    68   27   65 1
    69   28   66 1
    70   29   67 1
