@<TRIPOS>MOLECULE
AVX40812_0_7
   59    62     0     0     0
SMALL
USER_CHARGES

@<TRIPOS>ATOM
      1 C1        8.7902  -25.9755   -0.2848 C.ar      1 <0>        -0.1593
      2 C2        9.5109  -25.3225   -1.2829 C.ar      1 <0>        -0.1183
      3 C3        7.5801  -25.4518    0.1843 C.ar      1 <0>        -0.0764
      4 C4        0.9979  -25.8478   -4.6117 C.ar      1 <0>        -0.1418
      5 C5        9.0472  -24.1288   -1.8429 C.ar      1 <0>        -0.1494
      6 C6        0.5511  -24.9880   -5.6177 C.ar      1 <0>        -0.1419
      7 C7        5.9982  -22.3716   -0.9864 C.2       1 <0>         0.0125
      8 C8        7.0926  -24.2495   -0.3652 C.ar      1 <0>        -0.0758
      9 C9       -1.0021  -25.4141   -3.2932 C.ar      1 <0>        -0.0693
     10 C10       0.2258  -26.0596   -3.4561 C.ar      1 <0>        -0.0750
     11 C11       5.9357  -23.4525   -0.1374 C.2       1 <0>        -0.1120
     12 C12       7.8359  -23.6169   -1.3641 C.ar      1 <0>         0.0782
     13 C13      -0.6547  -24.3286   -5.4068 C.ar      1 <0>         0.0330
     14 C14      -1.4206  -24.5704   -4.3013 C.ar      1 <0>         0.0597
     15 C15      -1.8281  -25.6201   -2.0926 C.2       1 <0>         0.9222
     16 C16       3.4685  -23.8636    0.2093 C.2       1 <0>         0.6517
     17 C17      -2.4716  -23.1830   -5.5862 C.3       1 <0>         0.3190
     18 C18       3.3208  -29.6423   -2.1375 C.3       1 <0>        -0.0879
     19 C19       2.6994  -29.8938    0.2725 C.3       1 <0>        -0.0891
     20 C20       4.8356  -23.7315    0.8523 C.3       1 <0>        -0.0868
     21 C21       0.7527  -26.9984   -2.3972 C.3       1 <0>        -0.0290
     22 C22       2.6211  -27.6074   -0.7655 C.3       1 <0>        -0.0680
     23 C23       2.2784  -25.1731   -1.5341 C.3       1 <0>         0.0766
     24 C24       2.4229  -29.1161   -1.0176 C.3       1 <0>        -0.0707
     25 C25       2.1864  -26.6625   -1.9133 C.3       1 <0>        -0.0854
     26 N1        7.1476  -22.4797   -1.7225 N.pl3     1 <0>        -0.5844
     27 N2        3.4547  -24.8466   -0.7754 N.am      1 <0>        -0.5599
     28 O1       -2.7303  -26.5385   -2.1115 O.co2     1 <0>        -0.8127
     29 O2       -1.6218  -24.8747   -1.0632 O.co2     1 <0>        -0.8227
     30 O3        2.4989  -23.1819    0.5316 O.2       1 <0>        -0.5940
     31 O4       -1.2657  -23.5235   -6.3177 O.3       1 <0>        -0.3589
     32 O5       -2.5814  -23.8609   -4.3180 O.3       1 <0>        -0.3140
     33 H1        9.1713  -26.9021    0.1359 H         1 <0>         0.1267
     34 H2       10.4484  -25.7468   -1.6325 H         1 <0>         0.1216
     35 H3        7.0298  -25.9728    0.9627 H         1 <0>         0.1383
     36 H4        1.9529  -26.3536   -4.7311 H         1 <0>         0.1182
     37 H5        9.6094  -23.6211   -2.6195 H         1 <0>         0.1254
     38 H6        1.1432  -24.8219   -6.5102 H         1 <0>         0.1303
     39 H7        5.3293  -21.5352   -1.1340 H         1 <0>         0.1665
     40 H8       -2.5046  -22.1019   -5.4108 H         1 <0>         0.0482
     41 H9       -3.3272  -23.4646   -6.2104 H         1 <0>         0.0472
     42 H10       4.3786  -29.4752   -1.9096 H         1 <0>         0.0242
     43 H11       3.1724  -30.7180   -2.2812 H         1 <0>         0.0211
     44 H12       3.0964  -29.1556   -3.0910 H         1 <0>         0.0453
     45 H13       3.7329  -29.7455    0.6023 H         1 <0>         0.0221
     46 H14       2.5503  -30.9677    0.1189 H         1 <0>         0.0240
     47 H15       2.0360  -29.5713    1.0820 H         1 <0>         0.0343
     48 H16       5.0596  -24.6555    1.4000 H         1 <0>         0.0530
     49 H17       4.7956  -22.9278    1.5986 H         1 <0>         0.0663
     50 H18       0.7305  -28.0125   -2.8181 H         1 <0>         0.0359
     51 H19       0.0626  -27.0180   -1.5440 H         1 <0>         0.0904
     52 H20       2.0807  -27.3300    0.1492 H         1 <0>         0.0473
     53 H21       3.6836  -27.4374   -0.5496 H         1 <0>         0.0171
     54 H22       2.2935  -24.5500   -2.4349 H         1 <0>         0.0975
     55 H23       1.4120  -24.8591   -0.9447 H         1 <0>         0.0852
     56 H24       1.3791  -29.3062   -1.2917 H         1 <0>         0.0592
     57 H25       2.8693  -26.8156   -2.7585 H         1 <0>         0.0500
     58 H26       7.4484  -21.8208   -2.4273 H         1 <0>         0.4434
     59 H27       4.3156  -25.3570   -0.9670 H         1 <0>         0.2913
@<TRIPOS>BOND
     1    1    2 ar
     2    1    3 ar
     3    2    5 ar
     4    3    8 ar
     5    4    6 ar
     6    4   10 ar
     7    5   12 ar
     8    6   13 ar
     9    7   11 2
    10    7   26 1
    11    8   11 1
    12    8   12 ar
    13    9   10 ar
    14    9   14 ar
    15    9   15 1
    16   10   21 1
    17   11   20 1
    18   12   26 1
    19   13   14 ar
    20   13   31 1
    21   14   32 1
    22   15   28 1
    23   15   29 2
    24   16   20 1
    25   16   27 am
    26   16   30 2
    27   17   31 1
    28   17   32 1
    29   18   24 1
    30   19   24 1
    31   21   25 1
    32   22   24 1
    33   22   25 1
    34   23   25 1
    35   23   27 1
    36    1   33 1
    37    2   34 1
    38    3   35 1
    39    4   36 1
    40    5   37 1
    41    6   38 1
    42    7   39 1
    43   17   40 1
    44   17   41 1
    45   18   42 1
    46   18   43 1
    47   18   44 1
    48   19   45 1
    49   19   46 1
    50   19   47 1
    51   20   48 1
    52   20   49 1
    53   21   50 1
    54   21   51 1
    55   22   52 1
    56   22   53 1
    57   23   54 1
    58   23   55 1
    59   24   56 1
    60   25   57 1
    61   26   58 1
    62   27   59 1
