@<TRIPOS>MOLECULE
AVX40911_0_1
   31    33     0     0     0
SMALL
USER_CHARGES

@<TRIPOS>ATOM
      1 C1        8.7389  -41.2660   -0.5525 C.ar      1 <0>        -0.1468
      2 C2        7.8763  -41.9238    0.3277 C.ar      1 <0>        -0.1467
      3 C3       10.0045  -41.7919   -0.8147 C.ar      1 <0>        -0.1342
      4 C4        8.2800  -43.1078    0.9444 C.ar      1 <0>        -0.1371
      5 C5       10.4082  -42.9759   -0.1980 C.ar      1 <0>        -0.0999
      6 C6       10.9574  -45.2618   -1.5545 C.ar      1 <0>        -0.1312
      7 C7       11.6293  -45.0632   -2.7632 C.ar      1 <0>        -0.1488
      8 C8        9.5461  -43.6339    0.6816 C.ar      1 <0>        -0.0363
      9 C9       11.6750  -45.5242   -0.3733 C.ar      1 <0>        -0.0679
     10 C10      13.0724  -45.5909   -0.3872 C.ar      1 <0>        -0.0594
     11 C11      13.0239  -45.0864   -2.7331 C.ar      1 <0>         0.0381
     12 C12      13.7116  -45.3909   -1.5935 C.ar      1 <0>         0.0562
     13 C13       9.9727  -44.8847    1.3335 C.2       1 <0>        -0.1556
     14 C14      10.9214  -45.7229    0.8595 C.2       1 <0>        -0.0443
     15 C15      13.8567  -45.8642    0.8314 C.2       1 <0>         0.9237
     16 C16      15.1257  -45.1496   -3.2144 C.3       1 <0>         0.3186
     17 O1       15.1410  -45.7718    0.7759 O.co2     1 <0>        -0.8125
     18 O2       13.2299  -46.1860    1.9083 O.co2     1 <0>        -0.8141
     19 O3       13.8246  -44.9487   -3.8233 O.3       1 <0>        -0.3586
     20 O4       15.0587  -45.4178   -1.7990 O.3       1 <0>        -0.3119
     21 H1        8.4246  -40.3441   -1.0331 H         1 <0>         0.1135
     22 H2        6.8906  -41.5140    0.5322 H         1 <0>         0.1124
     23 H3       10.6755  -41.2794   -1.5000 H         1 <0>         0.1264
     24 H4        7.5969  -43.6090    1.6279 H         1 <0>         0.1200
     25 H5       11.3980  -43.3735   -0.4131 H         1 <0>         0.1790
     26 H6        9.8689  -45.2104   -1.5433 H         1 <0>         0.1225
     27 H7       11.0804  -44.8603   -3.6763 H         1 <0>         0.1298
     28 H8        9.4855  -45.0993    2.2816 H         1 <0>         0.1189
     29 H9       11.1396  -46.6444    1.4073 H         1 <0>         0.1477
     30 H10      15.6293  -45.9892   -3.7066 H         1 <0>         0.0493
     31 H11      15.7212  -44.2413   -3.3710 H         1 <0>         0.0491
@<TRIPOS>BOND
     1    1    2 ar
     2    1    3 ar
     3    2    4 ar
     4    3    5 ar
     5    4    8 ar
     6    5    8 ar
     7    6    7 ar
     8    6    9 ar
     9    7   11 ar
    10    8   13 1
    11    9   10 ar
    12    9   14 1
    13   10   12 ar
    14   10   15 1
    15   11   12 ar
    16   11   19 1
    17   12   20 1
    18   13   14 2
    19   15   17 1
    20   15   18 2
    21   16   19 1
    22   16   20 1
    23    1   21 1
    24    2   22 1
    25    3   23 1
    26    4   24 1
    27    5   25 1
    28    6   26 1
    29    7   27 1
    30   13   28 1
    31   14   29 1
    32   16   30 1
    33   16   31 1
