@<TRIPOS>MOLECULE
AVX40811_0_8
   51    53     0     0     0
SMALL
USER_CHARGES

@<TRIPOS>ATOM
      1 C1        4.4405  -29.1158  -21.2762 C.ar      1 <0>        -0.2715
      2 C2        5.3591  -28.0526  -21.1301 C.ar      1 <0>        -0.0459
      3 C3        6.8474  -24.5582  -22.5373 C.ar      1 <0>        -0.1489
      4 C4        6.1302  -23.6455  -21.7576 C.ar      1 <0>        -0.1404
      5 C5        4.9326  -30.4050  -21.4156 C.ar      1 <0>         0.3969
      6 C6        7.1116  -29.6806  -21.3315 C.ar      1 <0>         0.4352
      7 C7        6.7215  -28.3574  -21.1885 C.ar      1 <0>        -0.2426
      8 C8        8.8407  -23.1670  -22.4084 C.ar      1 <0>        -0.0965
      9 C9        8.1949  -24.3203  -22.8607 C.ar      1 <0>        -0.0667
     10 C10       6.8124  -22.5292  -21.2880 C.ar      1 <0>         0.0333
     11 C11       8.1101  -22.2819  -21.6402 C.ar      1 <0>         0.0645
     12 C12       7.7278  -27.2712  -21.0685 C.2       1 <0>         0.6684
     13 C13      10.2504  -22.8960  -22.7339 C.2       1 <0>         0.9260
     14 C14       7.3898  -20.6362  -20.4307 C.3       1 <0>         0.3185
     15 C15      12.5019  -24.9048  -25.0694 C.3       1 <0>        -0.0885
     16 C16      12.2484  -27.0971  -26.2506 C.3       1 <0>        -0.0886
     17 C17       8.9267  -25.3372  -23.7066 C.3       1 <0>        -0.0373
     18 C18      11.0305  -26.7407  -24.0805 C.3       1 <0>        -0.0663
     19 C19       9.9936  -26.5077  -21.7330 C.3       1 <0>         0.1038
     20 C20      11.5459  -26.0606  -25.3655 C.3       1 <0>        -0.0690
     21 C21      10.2607  -25.8301  -23.0895 C.3       1 <0>        -0.0886
     22 N1        6.2492  -30.7151  -21.4464 N.ar      1 <0>        -0.6743
     23 N2        8.9153  -27.4570  -21.7690 N.am      1 <0>        -0.5420
     24 O1       11.1557  -23.2027  -21.8713 O.co2     1 <0>        -0.7876
     25 O2        7.4788  -26.2983  -20.3598 O.2       1 <0>        -0.6605
     26 O3       10.5320  -22.3610  -23.8704 O.co2     1 <0>        -0.8470
     27 O4        6.2425  -21.5106  -20.5858 O.3       1 <0>        -0.3563
     28 O5        8.5683  -21.1132  -21.1139 O.3       1 <0>        -0.3120
     29 H1        3.3734  -28.9219  -21.2570 H         1 <0>         0.1318
     30 H2        5.0020  -27.0567  -21.0505 H         1 <0>         0.1534
     31 H3        6.3515  -25.4580  -22.8932 H         1 <0>         0.1193
     32 H4        5.0913  -23.8251  -21.5059 H         1 <0>         0.1316
     33 H5        4.2579  -31.2492  -21.5093 H         1 <0>         0.0075
     34 H6        8.1614  -29.9610  -21.3600 H         1 <0>         0.0635
     35 H7        7.1169  -19.6566  -20.8404 H         1 <0>         0.0555
     36 H8        7.6234  -20.5189  -19.3664 H         1 <0>         0.0513
     37 H9       13.3713  -25.2461  -24.4975 H         1 <0>         0.0304
     38 H10      12.8658  -24.4541  -25.9989 H         1 <0>         0.0202
     39 H11      12.0064  -24.1127  -24.4985 H         1 <0>         0.0430
     40 H12      13.1127  -27.5289  -25.7346 H         1 <0>         0.0267
     41 H13      12.6101  -26.6373  -27.1762 H         1 <0>         0.0234
     42 H14      11.5720  -27.9153  -26.5199 H         1 <0>         0.0315
     43 H15       9.1183  -24.8735  -24.6834 H         1 <0>         0.0391
     44 H16       8.2685  -26.1917  -23.9099 H         1 <0>         0.0896
     45 H17      10.3875  -27.5847  -24.3635 H         1 <0>         0.0412
     46 H18      11.8922  -27.1810  -23.5625 H         1 <0>         0.0338
     47 H19      10.8857  -27.0468  -21.3939 H         1 <0>         0.0612
     48 H20       9.7537  -25.7699  -20.9607 H         1 <0>         0.0483
     49 H21      10.6963  -25.6697  -25.9370 H         1 <0>         0.0528
     50 H22      10.8800  -24.9478  -22.8845 H         1 <0>         0.0570
     51 H23       9.0689  -28.3225  -22.2844 H         1 <0>         0.3717
@<TRIPOS>BOND
     1    1    2 ar
     2    1    5 ar
     3    2    7 ar
     4    3    4 ar
     5    3    9 ar
     6    4   10 ar
     7    5   22 ar
     8    6    7 ar
     9    6   22 ar
    10    7   12 1
    11    8    9 ar
    12    8   11 ar
    13    8   13 1
    14    9   17 1
    15   10   11 ar
    16   10   27 1
    17   11   28 1
    18   12   23 am
    19   12   25 2
    20   13   24 1
    21   13   26 2
    22   14   27 1
    23   14   28 1
    24   15   20 1
    25   16   20 1
    26   17   21 1
    27   18   20 1
    28   18   21 1
    29   19   21 1
    30   19   23 1
    31    1   29 1
    32    2   30 1
    33    3   31 1
    34    4   32 1
    35    5   33 1
    36    6   34 1
    37   14   35 1
    38   14   36 1
    39   15   37 1
    40   15   38 1
    41   15   39 1
    42   16   40 1
    43   16   41 1
    44   16   42 1
    45   17   43 1
    46   17   44 1
    47   18   45 1
    48   18   46 1
    49   19   47 1
    50   19   48 1
    51   20   49 1
    52   21   50 1
    53   23   51 1
