@<TRIPOS>MOLECULE
GL524384_0_1
   56    59     0     0     0
SMALL
USER_CHARGES

@<TRIPOS>ATOM
      1 C1        2.4936  -26.5474    3.8114 C.ar      1 <0>        -0.1429
      2 C2        1.6476  -27.1600    2.8720 C.ar      1 <0>        -0.1307
      3 C3        3.3504  -25.5081    3.4321 C.ar      1 <0>        -0.1285
      4 C4        1.6441  -26.7404    1.5399 C.ar      1 <0>        -0.0968
      5 C5        1.6589  -22.3788   -2.2537 C.ar      1 <0>        -0.1508
      6 C6        1.6410  -21.9487   -3.5825 C.ar      1 <0>        -0.1521
      7 C7        1.2226  -24.6735   -2.9443 C.ar      1 <0>        -0.0675
      8 C8        3.3496  -25.1062    2.1067 C.ar      1 <0>        -0.1091
      9 C9        2.5001  -25.7112    1.1694 C.ar      1 <0>        -0.0767
     10 C10       1.4510  -23.7334   -1.9363 C.ar      1 <0>        -0.0836
     11 C11       1.4136  -22.8970   -4.5588 C.ar      1 <0>         0.0410
     12 C12       1.2101  -24.2229   -4.2482 C.ar      1 <0>         0.0680
     13 C13       1.0026  -26.0968   -2.6369 C.2       1 <0>         0.9182
     14 C14       5.3642  -22.4164   -0.7692 C.2       1 <0>         0.6612
     15 C15       4.1535  -24.0078    1.4788 C.3       1 <0>        -0.0551
     16 C16       1.1024  -23.9951   -6.3969 C.3       1 <0>         0.3179
     17 C17       2.6529  -25.0769   -0.1891 C.3       1 <0>        -0.0350
     18 C18       4.0293  -24.3723   -0.0121 C.3       1 <0>         0.1037
     19 C19       1.4794  -24.1469   -0.4890 C.3       1 <0>        -0.0171
     20 C20       5.3480  -21.3258   -1.8287 C.3       1 <0>        -0.1674
     21 C21       4.5053  -20.1100   -1.4477 C.3       1 <0>        -0.0669
     22 C22       4.7107  -18.9337   -2.4076 C.3       1 <0>        -0.1140
     23 C23       3.7270  -17.8117   -2.1097 C.3       1 <0>         0.1029
     24 N1        4.2543  -23.2449   -0.8743 N.am      1 <0>        -0.5397
     25 N2        3.8634  -16.7586   -3.1453 N.4       1 <0>        -0.8423
     26 O1        2.0061  -26.9029   -2.6926 O.co2     1 <0>        -0.8079
     27 O2       -0.1865  -26.4892   -2.3230 O.co2     1 <0>        -0.8089
     28 O3        6.2691  -22.5403    0.0525 O.2       1 <0>        -0.6220
     29 O4        1.3619  -22.6663   -5.8988 O.3       1 <0>        -0.3567
     30 O5        1.0053  -24.9880   -5.3548 O.3       1 <0>        -0.3072
     31 H1        2.4853  -26.8905    4.8428 H         1 <0>         0.1209
     32 H2        0.9961  -27.9743    3.1842 H         1 <0>         0.1301
     33 H3        3.9974  -25.0315    4.1621 H         1 <0>         0.1218
     34 H4        0.9876  -27.2186    0.8208 H         1 <0>         0.1677
     35 H5        1.8357  -21.6528   -1.4635 H         1 <0>         0.1019
     36 H6        1.8010  -20.9054   -3.8315 H         1 <0>         0.1262
     37 H7        3.7508  -23.0174    1.7077 H         1 <0>         0.0468
     38 H8        5.1944  -24.0784    1.8148 H         1 <0>         0.0711
     39 H9        0.1589  -23.9831   -6.9576 H         1 <0>         0.0556
     40 H10       1.9153  -24.2769   -7.0777 H         1 <0>         0.0571
     41 H11       2.7102  -25.8510   -0.9181 H         1 <0>         0.1279
     42 H12       4.8578  -25.0960   -0.2857 H         1 <0>         0.0940
     43 H13       1.5431  -23.2571    0.1488 H         1 <0>         0.0112
     44 H14       0.5354  -24.6443   -0.2263 H         1 <0>         0.1002
     45 H15       4.9964  -21.7485   -2.7776 H         1 <0>         0.0594
     46 H16       6.3891  -21.0038   -1.9738 H         1 <0>         0.0682
     47 H17       3.4411  -20.3814   -1.4087 H         1 <0>         0.0715
     48 H18       4.7921  -19.7933   -0.4369 H         1 <0>         0.0813
     49 H19       5.7400  -18.5582   -2.3145 H         1 <0>         0.0698
     50 H20       4.5840  -19.2678   -3.4441 H         1 <0>         0.0630
     51 H21       3.9286  -17.3349   -1.1460 H         1 <0>         0.1176
     52 H22       2.6876  -18.1586   -2.1416 H         1 <0>         0.1131
     53 H23       3.5510  -23.0525   -1.5800 H         1 <0>         0.3150
     54 H24       4.5892  -16.0779   -2.8871 H         1 <0>         0.4593
     55 H25       2.9810  -16.2493   -3.2678 H         1 <0>         0.4574
     56 H26       4.1210  -17.1653   -4.0509 H         1 <0>         0.4584
@<TRIPOS>BOND
     1    1    2 ar
     2    1    3 ar
     3    2    4 ar
     4    3    8 ar
     5    4    9 ar
     6    5    6 ar
     7    5   10 ar
     8    6   11 ar
     9    7   10 ar
    10    7   12 ar
    11    7   13 1
    12    8    9 ar
    13    8   15 1
    14    9   17 1
    15   10   19 1
    16   11   12 ar
    17   11   29 1
    18   12   30 1
    19   13   26 1
    20   13   27 2
    21   14   20 1
    22   14   24 am
    23   14   28 2
    24   15   18 1
    25   16   29 1
    26   16   30 1
    27   17   18 1
    28   17   19 1
    29   18   24 1
    30   20   21 1
    31   21   22 1
    32   22   23 1
    33   23   25 1
    34    1   31 1
    35    2   32 1
    36    3   33 1
    37    4   34 1
    38    5   35 1
    39    6   36 1
    40   15   37 1
    41   15   38 1
    42   16   39 1
    43   16   40 1
    44   17   41 1
    45   18   42 1
    46   19   43 1
    47   19   44 1
    48   20   45 1
    49   20   46 1
    50   21   47 1
    51   21   48 1
    52   22   49 1
    53   22   50 1
    54   23   51 1
    55   23   52 1
    56   24   53 1
    57   25   54 1
    58   25   55 1
    59   25   56 1
@<TRIPOS>MOLECULE
GL524384_0_2
   56    59     0     0     0
SMALL
USER_CHARGES

@<TRIPOS>ATOM
      1 C1        7.3433  -41.8839    0.5391 C.ar      1 <0>        -0.1429
      2 C2        8.7260  -41.8555    0.3007 C.ar      1 <0>        -0.1307
      3 C3        6.6659  -43.1016    0.6560 C.ar      1 <0>        -0.1285
      4 C4        9.4517  -43.0443    0.1751 C.ar      1 <0>        -0.0968
      5 C5       11.3593  -44.8354   -1.4782 C.ar      1 <0>        -0.1508
      6 C6       12.2989  -44.4523   -2.4409 C.ar      1 <0>        -0.1521
      7 C7       13.1146  -45.7607   -0.0647 C.ar      1 <0>        -0.0675
      8 C8        7.3958  -44.2750    0.5437 C.ar      1 <0>        -0.1091
      9 C9        8.7773  -44.2511    0.3056 C.ar      1 <0>        -0.0767
     10 C10      11.7648  -45.4858   -0.2968 C.ar      1 <0>        -0.0836
     11 C11      13.6251  -44.7354   -2.1876 C.ar      1 <0>         0.0410
     12 C12      14.0221  -45.3719   -1.0312 C.ar      1 <0>         0.0680
     13 C13      13.5634  -46.4402    1.1642 C.2       1 <0>         0.9182
     14 C14       8.3548  -47.8596    2.9474 C.2       1 <0>         0.6612
     15 C15       6.8828  -45.6859    0.6034 C.3       1 <0>        -0.0551
     16 C16      15.7766  -44.9608   -2.2325 C.3       1 <0>         0.3179
     17 C17       9.3073  -45.6569    0.1715 C.3       1 <0>        -0.0350
     18 C18       8.1856  -46.4749    0.8886 C.3       1 <0>         0.1037
     19 C19      10.7139  -45.8789    0.7102 C.3       1 <0>        -0.0171
     20 C20       8.6349  -47.7182    4.4355 C.3       1 <0>        -0.1674
     21 C21      10.0973  -47.9512    4.8115 C.3       1 <0>        -0.0669
     22 C22      10.5050  -49.4229    4.6852 C.3       1 <0>        -0.1140
     23 C23      11.9204  -49.6402    5.1999 C.3       1 <0>         0.1029
     24 N1        8.3925  -46.6295    2.3025 N.am      1 <0>        -0.5397
     25 N2       11.9724  -49.2923    6.6406 N.4       1 <0>        -0.8423
     26 O1       14.8274  -46.5482    1.3851 O.co2     1 <0>        -0.8079
     27 O2       12.6773  -46.9048    1.9777 O.co2     1 <0>        -0.8089
     28 O3        8.1454  -48.9413    2.4041 O.2       1 <0>        -0.6220
     29 O4       14.6746  -44.4389   -3.0040 O.3       1 <0>        -0.3567
     30 O5       15.3697  -45.5538   -0.9790 O.3       1 <0>        -0.3072
     31 H1        6.7951  -40.9486    0.6267 H         1 <0>         0.1209
     32 H2        9.2353  -40.8979    0.2047 H         1 <0>         0.1301
     33 H3        5.5955  -43.1221    0.8307 H         1 <0>         0.1218
     34 H4       10.5172  -43.0112   -0.0254 H         1 <0>         0.1677
     35 H5       10.3067  -44.6251   -1.6518 H         1 <0>         0.1019
     36 H6       11.9904  -43.9506   -3.3532 H         1 <0>         0.1262
     37 H7        6.1350  -45.8236    1.3919 H         1 <0>         0.0468
     38 H8        6.4569  -45.9554   -0.3692 H         1 <0>         0.0711
     39 H9       16.2926  -45.7223   -2.8285 H         1 <0>         0.0556
     40 H10      16.4761  -44.1411   -2.0258 H         1 <0>         0.0571
     41 H11       9.2957  -45.9016   -0.9036 H         1 <0>         0.1279
     42 H12       8.1176  -47.4918    0.4727 H         1 <0>         0.0940
     43 H13      10.8406  -46.9336    0.9903 H         1 <0>         0.0112
     44 H14      10.8509  -45.3023    1.6324 H         1 <0>         0.1002
     45 H15       7.9851  -48.4042    4.9965 H         1 <0>         0.0594
     46 H16       8.3564  -46.6939    4.7149 H         1 <0>         0.0682
     47 H17      10.7541  -47.3246    4.1916 H         1 <0>         0.0715
     48 H18      10.2419  -47.6345    5.8523 H         1 <0>         0.0813
     49 H19       9.8036  -50.0496    5.2550 H         1 <0>         0.0698
     50 H20      10.4416  -49.7418    3.6380 H         1 <0>         0.0630
     51 H21      12.6460  -48.9958    4.6896 H         1 <0>         0.1176
     52 H22      12.2306  -50.6868    5.1163 H         1 <0>         0.1131
     53 H23       8.5602  -45.7867    2.8419 H         1 <0>         0.3150
     54 H24      12.1692  -48.2926    6.7688 H         1 <0>         0.4593
     55 H25      12.7072  -49.8238    7.1210 H         1 <0>         0.4574
     56 H26      11.0797  -49.5025    7.1032 H         1 <0>         0.4584
@<TRIPOS>BOND
     1    1    2 ar
     2    1    3 ar
     3    2    4 ar
     4    3    8 ar
     5    4    9 ar
     6    5    6 ar
     7    5   10 ar
     8    6   11 ar
     9    7   10 ar
    10    7   12 ar
    11    7   13 1
    12    8    9 ar
    13    8   15 1
    14    9   17 1
    15   10   19 1
    16   11   12 ar
    17   11   29 1
    18   12   30 1
    19   13   26 1
    20   13   27 2
    21   14   20 1
    22   14   24 am
    23   14   28 2
    24   15   18 1
    25   16   29 1
    26   16   30 1
    27   17   18 1
    28   17   19 1
    29   18   24 1
    30   20   21 1
    31   21   22 1
    32   22   23 1
    33   23   25 1
    34    1   31 1
    35    2   32 1
    36    3   33 1
    37    4   34 1
    38    5   35 1
    39    6   36 1
    40   15   37 1
    41   15   38 1
    42   16   39 1
    43   16   40 1
    44   17   41 1
    45   18   42 1
    46   19   43 1
    47   19   44 1
    48   20   45 1
    49   20   46 1
    50   21   47 1
    51   21   48 1
    52   22   49 1
    53   22   50 1
    54   23   51 1
    55   23   52 1
    56   24   53 1
    57   25   54 1
    58   25   55 1
    59   25   56 1
