@<TRIPOS>MOLECULE
GL5243104_0_23
   51    53     0     0     0
SMALL
USER_CHARGES

@<TRIPOS>ATOM
      1 C1       11.6920  -44.4378   -1.7361 C.ar      1 <0>        -0.1466
      2 C2       12.5869  -44.3906   -2.8116 C.ar      1 <0>        -0.1402
      3 C3       11.3968  -50.0535    3.6286 C.ar      1 <0>        -0.1969
      4 C4       10.3592  -48.2257    4.7972 C.ar      1 <0>        -0.1998
      5 C5       12.0711  -50.3498    4.8025 C.ar      1 <0>         0.3676
      6 C6       11.0797  -48.6038    5.9188 C.ar      1 <0>         0.3766
      7 C7       10.5264  -48.9697    3.6344 C.ar      1 <0>        -0.0923
      8 C8       13.3364  -45.5898   -0.3577 C.ar      1 <0>        -0.0966
      9 C9       12.0646  -45.0339   -0.5161 C.ar      1 <0>        -0.0680
     10 C10      13.8364  -44.9466   -2.6290 C.ar      1 <0>         0.0331
     11 C11      14.2011  -45.5300   -1.4350 C.ar      1 <0>         0.0655
     12 C12       9.7782  -48.6077    2.4028 C.2       1 <0>         0.6602
     13 C13      13.7494  -46.2190    0.9095 C.2       1 <0>         0.9261
     14 C14      15.8671  -45.6719   -2.8141 C.3       1 <0>         0.3171
     15 C15       8.0306  -43.0694   -0.3332 C.3       1 <0>        -0.0879
     16 C16       7.3110  -43.1546    2.0665 C.3       1 <0>        -0.0884
     17 C17      11.0611  -45.0600    0.6164 C.3       1 <0>        -0.0383
     18 C18       8.5513  -45.1162    1.1036 C.3       1 <0>        -0.0688
     19 C19       9.7960  -47.2350    0.3317 C.3       1 <0>         0.1004
     20 C20       8.3899  -43.5824    1.0634 C.3       1 <0>        -0.0689
     21 C21       9.6998  -45.7006    0.2408 C.3       1 <0>        -0.0883
     22 N1       11.9344  -49.6511    5.9514 N.ar      1 <0>        -0.6720
     23 N2       10.4028  -47.7010    1.5488 N.am      1 <0>        -0.5426
     24 O1       14.4539  -45.5329    1.7409 O.co2     1 <0>        -0.7852
     25 O2        8.6663  -49.0963    2.2130 O.2       1 <0>        -0.6555
     26 O3       13.3932  -47.4352    1.1450 O.co2     1 <0>        -0.8509
     27 O4       14.8338  -44.9930   -3.5572 O.3       1 <0>        -0.3527
     28 O5       15.4725  -46.0150   -1.4663 O.3       1 <0>        -0.3167
     29 H1       10.7002  -44.0074   -1.8518 H         1 <0>         0.1240
     30 H2       12.3038  -43.9319   -3.7538 H         1 <0>         0.1303
     31 H3       11.5508  -50.6538    2.7382 H         1 <0>         0.1576
     32 H4        9.6878  -47.3744    4.8348 H         1 <0>         0.1829
     33 H5       12.7611  -51.1853    4.8504 H         1 <0>         0.0092
     34 H6       10.9854  -48.0560    6.8509 H         1 <0>         0.0201
     35 H7       16.1349  -46.5916   -3.3467 H         1 <0>         0.0574
     36 H8       16.7496  -45.0217   -2.7697 H         1 <0>         0.0517
     37 H9        7.0963  -43.5164   -0.6897 H         1 <0>         0.0307
     38 H10       7.9040  -41.9812   -0.3273 H         1 <0>         0.0197
     39 H11       8.8185  -43.2969   -1.0598 H         1 <0>         0.0430
     40 H12       6.3422  -43.5980    1.8108 H         1 <0>         0.0267
     41 H13       7.1902  -42.0661    2.0640 H         1 <0>         0.0232
     42 H14       7.5654  -43.4669    3.0862 H         1 <0>         0.0313
     43 H15      10.9069  -44.0217    0.9397 H         1 <0>         0.0396
     44 H16      11.4923  -45.5785    1.4838 H         1 <0>         0.0888
     45 H17       8.6920  -45.4288    2.1483 H         1 <0>         0.0414
     46 H18       7.6019  -45.5655    0.7837 H         1 <0>         0.0345
     47 H19       8.7973  -47.6853    0.2795 H         1 <0>         0.0618
     48 H20      10.3760  -47.6448   -0.5022 H         1 <0>         0.0480
     49 H21       9.3281  -43.1077    1.3741 H         1 <0>         0.0534
     50 H22       9.4969  -45.4577   -0.8114 H         1 <0>         0.0592
     51 H23      11.2996  -47.2937    1.8104 H         1 <0>         0.3752
@<TRIPOS>BOND
     1    1    2 ar
     2    1    9 ar
     3    2   10 ar
     4    3    5 ar
     5    3    7 ar
     6    4    6 ar
     7    4    7 ar
     8    5   22 ar
     9    6   22 ar
    10    7   12 1
    11    8    9 ar
    12    8   11 ar
    13    8   13 1
    14    9   17 1
    15   10   11 ar
    16   10   27 1
    17   11   28 1
    18   12   23 am
    19   12   25 2
    20   13   24 1
    21   13   26 2
    22   14   27 1
    23   14   28 1
    24   15   20 1
    25   16   20 1
    26   17   21 1
    27   18   20 1
    28   18   21 1
    29   19   21 1
    30   19   23 1
    31    1   29 1
    32    2   30 1
    33    3   31 1
    34    4   32 1
    35    5   33 1
    36    6   34 1
    37   14   35 1
    38   14   36 1
    39   15   37 1
    40   15   38 1
    41   15   39 1
    42   16   40 1
    43   16   41 1
    44   16   42 1
    45   17   43 1
    46   17   44 1
    47   18   45 1
    48   18   46 1
    49   19   47 1
    50   19   48 1
    51   20   49 1
    52   21   50 1
    53   23   51 1
