@<TRIPOS>MOLECULE
GL5243106_0_8
   54    56     0     0     0
SMALL
USER_CHARGES

@<TRIPOS>ATOM
      1 C1        5.2915  -27.9225  -21.2292 C.ar      1 <0>        -0.0475
      2 C2        7.0266  -29.6059  -21.3304 C.ar      1 <0>        -0.0519
      3 C3        6.8615  -24.5069  -22.4905 C.ar      1 <0>        -0.1466
      4 C4        4.3197  -28.9152  -21.3540 C.ar      1 <0>        -0.2077
      5 C5        6.0547  -30.5987  -21.4552 C.ar      1 <0>        -0.1952
      6 C6        6.1568  -23.5799  -21.7180 C.ar      1 <0>        -0.1393
      7 C7        6.6450  -28.2678  -21.2174 C.ar      1 <0>        -0.1647
      8 C8        8.8536  -23.1091  -22.4295 C.ar      1 <0>        -0.0940
      9 C9        8.2021  -24.2730  -22.8441 C.ar      1 <0>        -0.0679
     10 C10       4.7012  -30.2532  -21.4670 C.ar      1 <0>         0.1276
     11 C11       6.8231  -22.4389  -21.3216 C.ar      1 <0>         0.0355
     12 C12       8.1353  -22.2099  -21.6677 C.ar      1 <0>         0.0663
     13 C13       7.6801  -27.2105  -21.0845 C.2       1 <0>         0.6696
     14 C14      10.2564  -22.8421  -22.7871 C.2       1 <0>         0.9260
     15 C15       7.4339  -20.5410  -20.4817 C.3       1 <0>         0.3176
     16 C16      12.5585  -24.8168  -24.8388 C.3       1 <0>        -0.0881
     17 C17      12.4745  -26.9791  -26.0941 C.3       1 <0>        -0.0883
     18 C18       8.9204  -25.3056  -23.6808 C.3       1 <0>        -0.0363
     19 C19      11.0296  -26.7056  -24.0575 C.3       1 <0>        -0.0681
     20 C20       9.9769  -26.5131  -21.7149 C.3       1 <0>         0.1032
     21 C21      11.6620  -25.9797  -25.2639 C.3       1 <0>        -0.0694
     22 C22      10.2522  -25.8113  -23.0591 C.3       1 <0>        -0.0909
     23 N1        3.7187  -31.2570  -21.5936 N.pl3     1 <0>        -0.8086
     24 N2        8.8723  -27.4313  -21.7654 N.am      1 <0>        -0.5495
     25 O1       11.1842  -23.1676  -21.9501 O.co2     1 <0>        -0.7906
     26 O2        7.4486  -26.2295  -20.3830 O.2       1 <0>        -0.6649
     27 O3       10.5098  -22.2916  -23.9249 O.co2     1 <0>        -0.8489
     28 O4        6.3026  -21.4308  -20.5695 O.3       1 <0>        -0.3535
     29 O5        8.6006  -21.0296  -21.1759 O.3       1 <0>        -0.3174
     30 H1        4.9828  -26.8831  -21.1418 H         1 <0>         0.1459
     31 H2        8.0784  -29.8867  -21.3222 H         1 <0>         0.1759
     32 H3        6.3610  -25.4151  -22.8172 H         1 <0>         0.1200
     33 H4        3.2679  -28.6344  -21.3620 H         1 <0>         0.1208
     34 H5        6.3633  -31.6382  -21.5426 H         1 <0>         0.1333
     35 H6        5.1230  -23.7563  -21.4431 H         1 <0>         0.1312
     36 H7        7.1488  -19.5694  -20.9085 H         1 <0>         0.0610
     37 H8        7.6894  -20.4024  -19.4240 H         1 <0>         0.0475
     38 H9       13.3711  -25.1604  -24.1852 H         1 <0>         0.0304
     39 H10      13.0079  -24.3331  -25.7135 H         1 <0>         0.0192
     40 H11      11.9897  -24.0492  -24.3048 H         1 <0>         0.0441
     41 H12      13.2896  -27.4117  -25.4988 H         1 <0>         0.0263
     42 H13      12.9212  -26.4864  -26.9648 H         1 <0>         0.0224
     43 H14      11.8464  -27.8006  -26.4543 H         1 <0>         0.0310
     44 H15       9.1143  -24.8513  -24.6628 H         1 <0>         0.0376
     45 H16       8.2513  -26.1535  -23.8754 H         1 <0>         0.0878
     46 H17      10.3580  -27.4894  -24.4318 H         1 <0>         0.0402
     47 H18      11.8316  -27.2306  -23.5166 H         1 <0>         0.0338
     48 H19      10.8577  -27.0847  -21.3913 H         1 <0>         0.0566
     49 H20       9.7620  -25.7868  -20.9257 H         1 <0>         0.0469
     50 H21      10.8680  -25.5861  -25.9138 H         1 <0>         0.0535
     51 H22      10.8705  -24.9330  -22.8352 H         1 <0>         0.0597
     52 H23       2.7514  -31.0016  -21.5537 H         1 <0>         0.3713
     53 H24       4.0035  -32.2161  -21.6263 H         1 <0>         0.3756
     54 H25       9.0089  -28.3021  -22.2755 H         1 <0>         0.3713
@<TRIPOS>BOND
     1    1    4 ar
     2    1    7 ar
     3    2    5 ar
     4    2    7 ar
     5    3    6 ar
     6    3    9 ar
     7    4   10 ar
     8    5   10 ar
     9    6   11 ar
    10    7   13 1
    11    8    9 ar
    12    8   12 ar
    13    8   14 1
    14    9   18 1
    15   10   23 1
    16   11   12 ar
    17   11   28 1
    18   12   29 1
    19   13   24 am
    20   13   26 2
    21   14   25 1
    22   14   27 2
    23   15   28 1
    24   15   29 1
    25   16   21 1
    26   17   21 1
    27   18   22 1
    28   19   21 1
    29   19   22 1
    30   20   22 1
    31   20   24 1
    32    1   30 1
    33    2   31 1
    34    3   32 1
    35    4   33 1
    36    5   34 1
    37    6   35 1
    38   15   36 1
    39   15   37 1
    40   16   38 1
    41   16   39 1
    42   16   40 1
    43   17   41 1
    44   17   42 1
    45   17   43 1
    46   18   44 1
    47   18   45 1
    48   19   46 1
    49   19   47 1
    50   20   48 1
    51   20   49 1
    52   21   50 1
    53   22   51 1
    54   23   52 1
    55   23   53 1
    56   24   54 1
