@<TRIPOS>MOLECULE
pC2A03_0_1
   30    32     0     0     0
SMALL
USER_CHARGES

@<TRIPOS>ATOM
      1 C1        8.0615  -22.8486   -2.1988 C.ar      1 <0>        -0.1749
      2 C2        6.2331  -23.6706   -0.8503 C.ar      1 <0>        -0.1614
      3 C3        8.7798  -24.0149   -1.9356 C.ar      1 <0>        -0.0789
      4 C4        6.9515  -24.8370   -0.5872 C.ar      1 <0>        -0.0768
      5 C5        6.7881  -22.6764   -1.6560 C.ar      1 <0>         0.1031
      6 C6        8.2260  -25.0081   -1.1290 C.ar      1 <0>        -0.0561
      7 C7        6.5730  -20.2445   -2.2911 C.2       1 <0>        -0.1275
      8 C8        5.5821  -19.3640   -2.4683 C.2       1 <0>        -0.0478
      9 C9        4.6078  -21.3400   -1.8662 C.2       1 <0>         0.7917
     10 C10       5.5715  -17.9291   -2.8480 C.3       1 <0>        -0.0155
     11 C11       4.5578  -17.1294   -2.0168 C.3       1 <0>        -0.0801
     12 C12       3.2766  -17.8927   -1.6250 C.3       1 <0>        -0.0916
     13 C13       3.1351  -19.2595   -2.2926 C.3       1 <0>         0.1202
     14 N1        6.0525  -21.4824   -1.9259 N.am      1 <0>        -0.2673
     15 N2        4.3866  -19.9827   -2.2114 N.am      1 <0>        -0.3625
     16 O1        3.7445  -22.1575   -1.5862 O.2       1 <0>        -0.6397
     17 Br1       9.2000  -26.5877   -0.7718 Br        1 <0>        -0.0889
     18 H1        8.5035  -22.0803   -2.8277 H         1 <0>         0.1368
     19 H2        5.2418  -23.5467   -0.4225 H         1 <0>         0.1834
     20 H3        9.7707  -24.1340   -2.3660 H         1 <0>         0.1467
     21 H4        6.5052  -25.6020    0.0426 H         1 <0>         0.1500
     22 H5        7.6342  -20.0972   -2.3976 H         1 <0>         0.1833
     23 H6        6.5648  -17.4874   -2.7331 H         1 <0>         0.0601
     24 H7        5.2952  -17.8489   -3.9039 H         1 <0>         0.0610
     25 H8        5.0523  -16.7557   -1.0885 H         1 <0>         0.0519
     26 H9        4.2768  -16.2053   -2.5736 H         1 <0>         0.0507
     27 H10       3.2350  -18.0118   -0.5225 H         1 <0>         0.0555
     28 H11       2.3975  -17.2641   -1.8838 H         1 <0>         0.0584
     29 H12       2.3875  -19.8556   -1.7801 H         1 <0>         0.0701
     30 H13       2.8461  -19.1637   -3.3318 H         1 <0>         0.0461
@<TRIPOS>BOND
     1    1    3 ar
     2    1    5 ar
     3    2    4 ar
     4    2    5 ar
     5    3    6 ar
     6    4    6 ar
     7    5   14 1
     8    6   17 1
     9    7    8 2
    10    7   14 1
    11    8   10 1
    12    8   15 1
    13    9   14 am
    14    9   15 am
    15    9   16 2
    16   10   11 1
    17   11   12 1
    18   12   13 1
    19   13   15 1
    20    1   18 1
    21    2   19 1
    22    3   20 1
    23    4   21 1
    24    7   22 1
    25   10   23 1
    26   10   24 1
    27   11   25 1
    28   11   26 1
    29   12   27 1
    30   12   28 1
    31   13   29 1
    32   13   30 1
