AVX17679_0, 3
##########                 Name:           AVX17679_0
##########          Protonation:                  100
##########               SMILES:   c1ccc2c(c1)c(no2)CC(=O)[O-]
##########            Long Name:   2-(1,2-benzoxazol-3-yl)acetate
##########          FlexRecCode: 1
##########               Number:                   13
##########   Ligand Source File: /raid1/people/rgc/Examples/sampl4/screening/ligands/build_1//sampl4-hivint-00000
##########           GlobalRank: 70
##########                 Rank:                    1
##########               Setnum:                    4
##########             Matchnum:                13744
##########                Cloud:                    1
##########        Electrostatic:           -54.521965
##########        Van der Waals:            -6.765359
##########  Ligand Polar Desolv:            22.755474
########## Ligand Apolar Desolv:            -1.881144
##########      Internal Energy:             0.000000
##########      Receptor Energy: 0.0
########## Receptor Desolvation:             0.000000
########## Receptor Hydrophobic:             0.000000
##########         Total Energy: -40.41
##########        Ligand Charge:            -1.000000
##########            Arbitrary:    +999.9990
##########     heavy atom count:   13
##########           pose count:    1
##########        Ligand Energy:             0.000000
# num electro vdwattr vdwrepu polsolv apolsol rdesolv rhydroe totalscore fullpol fullapo
#   1  -38.04   -4.31    5.20   13.41   -0.19    0.00    0.00     -23.93   28.74   -0.41
#   2   25.35   -2.44    0.92   -7.58   -0.08    0.00    0.00      16.19  -16.02   -0.16
#   3  -37.13   -3.87    3.74   15.38   -0.23    0.00    0.00     -22.12   28.18   -0.43
#   4   -5.04   -0.92    0.16    0.90   -0.11    0.00    0.00      -5.01    2.29   -0.28
#   5    6.40   -1.05    0.61   -0.94   -0.18    0.00    0.00       4.84   -3.54   -0.66
#   6   -8.85   -1.77    3.65    1.82    0.22    0.00    0.00      -4.93    9.82    1.20
#   7   -2.22   -0.81    0.69    0.47   -0.01    0.00    0.00      -1.89    2.91   -0.09
#   8    1.63   -0.62    0.11   -0.06   -0.07    0.00    0.00       0.98   -0.30   -0.35
#   9   -1.62   -0.76    0.06    0.38   -0.12    0.00    0.00      -2.07    1.46   -0.48
#  10   -0.70   -1.83    0.46    0.00   -0.16    0.00    0.00      -2.24   -0.01   -0.47
#  11   -2.52   -1.93    0.57    0.37   -0.19    0.00    0.00      -3.69    0.94   -0.47
#  12   -0.79   -1.07    0.11    0.46   -0.16    0.00    0.00      -1.47    1.30   -0.47
#  13   -4.90   -0.73    0.09    1.32   -0.11    0.00    0.00      -4.33    5.30   -0.44
#  14    3.41   -0.37    0.12   -1.03   -0.08    0.00    0.00       2.04   -3.46   -0.28
#  15    2.88   -0.27    0.04   -0.72   -0.07    0.00    0.00       1.87   -2.84   -0.28
#  16    1.07   -0.12    0.01   -0.17   -0.03    0.00    0.00       0.76   -1.63   -0.28
#  17    0.55   -0.88    0.76   -0.20   -0.10    0.00    0.00       0.12   -0.53   -0.28
#  18    1.76   -0.79    0.70   -0.44   -0.11    0.00    0.00       1.11   -1.09   -0.28
#  19    4.24   -0.33    0.11   -0.59   -0.08    0.00    0.00       3.35   -2.06   -0.28

@<TRIPOS>MOLECULE
       AVX17679_0       100
   19    20     0     0     0



@<TRIPOS>ATOM
      1 O1         12.9354   -20.7713     9.8269 O.co2      1          -0.6817
      2 C1         13.8869   -21.2982     9.2758 C.2        1           0.5039
      3 O2         13.7098   -22.2399     8.5219 O.co2      1          -0.6890
      4 C2         15.2810   -20.7815     9.5215 C.3        1          -0.1314
      5 C3         15.6051   -20.8893    10.9894 C.2        1           0.1871
      6 N1         15.3820   -19.9860    11.8935 N.2        1          -0.2984
      7 O3         15.8230   -20.4520    13.1531 O.3        1          -0.1093
      8 C4         16.3372   -21.6907    13.0156 C.ar       1           0.0811
      9 C5         16.9003   -22.5962    13.9069 C.ar       1          -0.1335
     10 C6         17.3470   -23.8177    13.4514 C.ar       1          -0.0710
     11 C7         17.2399   -24.1534    12.1091 C.ar       1          -0.1600
     12 C8         16.6894   -23.2774    11.2167 C.ar       1          -0.0310
     13 C9         16.2247   -22.0365    11.6589 C.ar       1          -0.1770
     14 H1         15.9943   -21.3729     8.9475 H          1           0.0919
     15 H2         15.3416   -19.7382     9.2118 H          1           0.0902
     16 H3         16.9879   -22.3432    14.9532 H          1           0.1330
     17 H4         17.7846   -24.5201    14.1454 H          1           0.1337
     18 H5         17.5947   -25.1144    11.7671 H          1           0.1297
     19 H6         16.6093   -23.5454    10.1737 H          1           0.1317
@<TRIPOS>BOND
     1    1    2 1
     2    2    3 2
     3    2    4 1
     4    4    5 1
     5    4   14 1
     6    4   15 1
     7    5   13 1
     8    5    6 2
     9    6    7 1
    10    7    8 1
    11    8   13 ar
    12    8    9 ar
    13    9   10 ar
    14    9   16 1
    15   10   11 ar
    16   10   17 1
    17   11   12 ar
    18   11   18 1
    19   12   13 ar
    20   12   19 1
