AVX15988_0, 3
##########                 Name:           AVX15988_0
##########          Protonation:                   97
##########               SMILES:   [H]/N=c\1/[nH]c2c(c(ccc2s1)Cl)C
##########            Long Name:   5-chloro-4-methyl-3H-1,3-benzothiazol-2-imine
##########          FlexRecCode: 1
##########               Number:                  615
##########   Ligand Source File: /raid1/people/rgc/Examples/sampl4/screening/ligands/build_1//sampl4-hivint-00000
##########           GlobalRank: 133
##########                 Rank:                    1
##########               Setnum:                    1
##########             Matchnum:                 8802
##########                Cloud:                    1
##########        Electrostatic:            -3.870409
##########        Van der Waals:           -15.019525
##########  Ligand Polar Desolv:             1.311029
########## Ligand Apolar Desolv:            -2.577600
##########      Internal Energy:             0.000000
##########      Receptor Energy: 0.0
########## Receptor Desolvation:             0.000000
########## Receptor Hydrophobic:             0.000000
##########         Total Energy: -20.16
##########        Ligand Charge:             0.000000
##########            Arbitrary:    +999.9990
##########     heavy atom count:   12
##########           pose count:    1
##########        Ligand Energy:             0.000000
# num electro vdwattr vdwrepu polsolv apolsol rdesolv rhydroe totalscore fullpol fullapo
#   1   -0.94   -1.44    0.71   -0.09   -0.08    0.00    0.00      -1.84   -0.23   -0.19
#   2   -0.83   -1.56    0.44   -0.01   -0.17    0.00    0.00      -2.12   -0.02   -0.41
#   3    0.00   -1.76    0.49    0.00   -0.15    0.00    0.00      -1.42   -0.01   -0.30
#   4   -0.30   -4.66    2.69   -0.02   -0.44    0.00    0.00      -2.72   -0.04   -0.93
#   5   -0.31   -2.22    0.50   -0.13   -0.26    0.00    0.00      -2.41   -0.23   -0.46
#   6   -0.09   -3.59    1.88   -0.03   -0.26    0.00    0.00      -2.09   -0.06   -0.47
#   7   -1.05   -2.66    1.31    0.05   -0.14    0.00    0.00      -2.48    0.12   -0.31
#   8    1.94   -1.51    0.54   -0.05   -0.28    0.00    0.00       0.64   -0.13   -0.72
#   9  -11.14   -0.91    0.09    0.22    0.34    0.00    0.00     -11.41    0.66    1.03
#  10    9.00   -0.82    0.05   -0.33   -0.77    0.00    0.00       7.14   -1.00   -2.36
#  11  -19.30   -0.69    0.05    0.56    0.38    0.00    0.00     -19.00    2.11    1.43
#  12   -0.70   -4.35    3.19    0.05   -0.35    0.00    0.00      -2.17    0.11   -0.83
#  13    0.40   -0.88    1.14    0.08   -0.11    0.00    0.00       0.64    0.22   -0.28
#  14    0.96   -0.66    0.34    0.07   -0.09    0.00    0.00       0.62    0.16   -0.23
#  15    0.42   -0.21    0.03    0.04   -0.05    0.00    0.00       0.24    0.22   -0.24
#  16   -0.16   -0.44    0.09    0.46   -0.14    0.00    0.00      -0.20    0.89   -0.28
#  17   -0.18   -1.21    1.02    0.48   -0.17    0.00    0.00      -0.06    0.80   -0.28
#  18    7.70   -0.01    0.00    0.03    0.08    0.00    0.00       7.81    0.21    0.52
#  19   10.71   -0.01    0.00   -0.07    0.08    0.00    0.00      10.70   -0.57    0.60

@<TRIPOS>MOLECULE
       AVX15988_0        97
   19    20     0     0     0



@<TRIPOS>ATOM
      1 C1         19.6396   -18.5812     8.1536 C.3        1          -0.1232
      2 C2         20.2890   -19.8324     8.6865 C.ar       1          -0.0886
      3 C3         21.6109   -20.0858     8.3997 C.ar       1          -0.0001
      4 Cl1        22.5040   -18.9570     7.4292 Cl         1          -0.0495
      5 C4         22.2417   -21.2246     8.8715 C.ar       1          -0.1139
      6 C5         21.5234   -22.1205     9.6454 C.ar       1          -0.0342
      7 C6         20.2037   -21.8668     9.9313 C.ar       1          -0.1286
      8 C7         19.5384   -20.7209     9.4737 C.ar       1           0.1622
      9 N1         18.2093   -20.5980     9.8477 N.pl3      1          -0.6399
     10 C8         17.6238   -21.5659    10.6264 C.2        1           0.4393
     11 N2         16.3975   -21.6256    11.0748 N.2        1          -0.6873
     12 S1         18.9582   -22.7287    10.8598 S.3        1          -0.0576
     13 H1         20.3653   -18.0159     7.5690 H          1           0.0814
     14 H2         18.7947   -18.8519     7.5203 H          1           0.0844
     15 H3         19.2890   -17.9710     8.9860 H          1           0.0669
     16 H4         23.2795   -21.4117     8.6388 H          1           0.1508
     17 H5         21.9981   -23.0145    10.0222 H          1           0.1482
     18 H6         17.6932   -19.8288     9.5599 H          1           0.4170
     19 H7         16.1168   -22.3766    11.6207 H          1           0.3727
@<TRIPOS>BOND
     1    1    2 1
     2    1   13 1
     3    1   14 1
     4    1   15 1
     5    2    8 ar
     6    2    3 ar
     7    3    4 1
     8    3    5 ar
     9    5    6 ar
    10    5   16 1
    11    6    7 ar
    12    6   17 1
    13    7   12 1
    14    7    8 ar
    15    8    9 1
    16    9   10 1
    17    9   18 1
    18   10   11 2
    19   10   12 1
    20   11   19 1
