AVX17631_0, 3
##########                 Name:           AVX17631_0
##########          Protonation:                  100
##########               SMILES:   c1ccc2c(c1)c(no2)N
##########            Long Name:   1,2-benzoxazol-3-amine
##########          FlexRecCode: 1
##########               Number:                  499
##########   Ligand Source File: /raid1/people/rgc/Examples/sampl4/screening/ligands/build_1//sampl4-hivint-00000
##########           GlobalRank: 131
##########                 Rank:                    1
##########               Setnum:                    1
##########             Matchnum:                 9434
##########                Cloud:                    1
##########        Electrostatic:           -12.550600
##########        Van der Waals:           -10.674980
##########  Ligand Polar Desolv:             2.826006
########## Ligand Apolar Desolv:            -0.976629
##########      Internal Energy:             0.000000
##########      Receptor Energy: 0.0
########## Receptor Desolvation:             0.000000
########## Receptor Hydrophobic:             0.000000
##########         Total Energy: -21.38
##########        Ligand Charge:             0.000000
##########            Arbitrary:    +999.9990
##########     heavy atom count:   10
##########           pose count:    1
##########        Ligand Energy:             0.000000
# num electro vdwattr vdwrepu polsolv apolsol rdesolv rhydroe totalscore fullpol fullapo
#   1  -20.46   -1.10    0.20   -0.43    0.27    0.00    0.00     -21.53   -1.45    0.90
#   2   12.98   -1.04    0.14   -0.49   -0.81    0.00    0.00      10.78   -1.43   -2.39
#   3  -16.65   -1.75    0.41    1.54    0.54    0.00    0.00     -15.91    3.67    1.28
#   4   -4.53   -1.75    0.79    0.57   -0.03    0.00    0.00      -4.96    1.45   -0.08
#   5    3.79   -1.17    0.29   -0.07   -0.11    0.00    0.00       2.73   -0.24   -0.35
#   6   -3.59   -1.02    0.11    0.09   -0.16    0.00    0.00      -4.57    0.27   -0.48
#   7   -0.89   -1.33    0.19   -0.04   -0.17    0.00    0.00      -2.23   -0.11   -0.47
#   8   -2.09   -1.35    0.20   -0.17   -0.16    0.00    0.00      -3.57   -0.51   -0.47
#   9   -0.70   -0.78    0.06   -0.02   -0.14    0.00    0.00      -1.58   -0.07   -0.47
#  10   -6.22   -0.75    0.06    0.20   -0.12    0.00    0.00      -6.84    0.71   -0.44
#  11    7.71   -0.01    0.00    0.33    0.08    0.00    0.00       8.11    2.52    0.60
#  12   10.27   -0.02    0.00    0.31    0.15    0.00    0.00      10.70    1.26    0.60
#  13    3.82   -0.24    0.03   -0.01   -0.07    0.00    0.00       3.53   -0.06   -0.28
#  14    1.26   -0.47    0.13    0.38   -0.09    0.00    0.00       1.21    1.16   -0.28
#  15    0.91   -0.53    0.16    0.46   -0.10    0.00    0.00       0.91    1.30   -0.28
#  16    1.85   -0.19    0.05    0.17   -0.05    0.00    0.00       1.84    1.05   -0.28

@<TRIPOS>MOLECULE
       AVX17631_0       100
   16    17     0     0     0



@<TRIPOS>ATOM
      1 N1         16.1541   -19.4691     9.4276 N.pl3      1          -0.8162
      2 C1         15.6452   -20.6660     9.9115 C.2        1           0.3772
      3 N2         14.4717   -21.1706     9.6479 N.2        1          -0.3595
      4 O1         14.3208   -22.4013    10.3263 O.3        1          -0.0920
      5 C2         15.4389   -22.6656    11.0328 C.ar       1           0.1013
      6 C3         15.8184   -23.7163    11.8597 C.ar       1          -0.1316
      7 C4         17.0603   -23.7034    12.4572 C.ar       1          -0.0556
      8 C5         17.9366   -22.6497    12.2410 C.ar       1          -0.1547
      9 C6         17.5811   -21.6073    11.4313 C.ar       1          -0.0383
     10 C7         16.3310   -21.6052    10.8121 C.ar       1          -0.2113
     11 H1         17.0463   -19.1841     9.6800 H          1           0.4171
     12 H2         15.6191   -18.9193     8.8339 H          1           0.4155
     13 H3         15.1421   -24.5400    12.0339 H          1           0.1411
     14 H4         17.3538   -24.5205    13.0995 H          1           0.1412
     15 H5         18.9065   -22.6529    12.7161 H          1           0.1355
     16 H6         18.2678   -20.7899    11.2679 H          1           0.1303
@<TRIPOS>BOND
     1    1    2 1
     2    1   11 1
     3    1   12 1
     4    2   10 1
     5    2    3 2
     6    3    4 1
     7    4    5 1
     8    5   10 ar
     9    5    6 ar
    10    6    7 ar
    11    6   13 1
    12    7    8 ar
    13    7   14 1
    14    8    9 ar
    15    8   15 1
    16    9   10 ar
    17    9   16 1
