AVX17286_0, 3
##########                 Name:           AVX17286_0
##########          Protonation:                  100
##########               SMILES:   c1ccc2c(c1)/C(=C\c3ccc4c(c3C(=O)[O-])OCO4)/C(=[NH+]2)[O-]
##########            Long Name:   5-[(E)-(2-oxidoindol-1-ium-3-ylidene)methyl]-1,3-benzodioxole-4-carboxylate
##########          FlexRecCode: 1
##########               Number:                   52
##########   Ligand Source File: /raid1/people/rgc/Examples/sampl4/screening/ligands/build_1//sampl4-hivint-00000
##########           GlobalRank: 26
##########                 Rank:                    1
##########               Setnum:                    4
##########             Matchnum:                19088
##########                Cloud:                    1
##########        Electrostatic:           -52.298416
##########        Van der Waals:           -21.597473
##########  Ligand Polar Desolv:            30.003510
########## Ligand Apolar Desolv:            -1.027853
##########      Internal Energy:             0.000000
##########      Receptor Energy: 0.0
########## Receptor Desolvation:             0.000000
########## Receptor Hydrophobic:             0.000000
##########         Total Energy: -44.92
##########        Ligand Charge:            -1.000000
##########            Arbitrary:    +999.9990
##########     heavy atom count:   23
##########           pose count:    1
##########        Ligand Energy:             0.000000
# num electro vdwattr vdwrepu polsolv apolsol rdesolv rhydroe totalscore fullpol fullapo
#   1  -35.44   -3.04    3.30   12.73   -0.14    0.00    0.00     -22.59   30.01   -0.34
#   2   23.98   -1.73    0.61   -7.42   -0.07    0.00    0.00      15.37  -18.29   -0.17
#   3  -32.41   -2.01    1.21   12.37   -0.22    0.00    0.00     -21.06   31.05   -0.56
#   4   -3.05   -1.33    0.31    1.98   -0.15    0.00    0.00      -2.24    5.49   -0.41
#   5    1.84   -1.47    0.52   -0.22   -0.10    0.00    0.00       0.56   -0.67   -0.32
#   6   -6.11   -1.12    0.16    2.84    0.11    0.00    0.00      -4.13    8.59    0.33
#   7    2.20   -0.57    0.05   -0.67    0.01    0.00    0.00       1.00   -2.49    0.02
#   8   -3.31   -1.33    0.27    1.16    0.16    0.00    0.00      -3.05    3.67    0.50
#   9    0.50   -1.65    0.73   -0.27   -0.11    0.00    0.00      -0.80   -0.82   -0.33
#  10   -1.93   -1.58    0.51    0.07   -0.17    0.00    0.00      -3.09    0.20   -0.46
#  11   -1.93   -1.53    0.38    0.23   -0.12    0.00    0.00      -2.97    0.54   -0.28
#  12   -1.91   -1.37    0.27    0.48   -0.14    0.00    0.00      -2.68    1.19   -0.35
#  13    4.43   -1.90    0.71   -0.63   -0.16    0.00    0.00       2.44   -1.46   -0.38
#  14   -4.91   -1.41    0.22    1.49   -0.17    0.00    0.00      -4.77    3.79   -0.42
#  15    9.20   -2.86    1.52   -4.92   -0.36    0.00    0.00       2.58  -10.62   -0.77
#  16  -10.89   -3.08    1.30   11.97    0.99    0.00    0.00       0.28   19.54    1.61
#  17   -5.36   -3.74    2.68    3.19    0.72    0.00    0.00      -2.51    7.37    1.67
#  18    0.61   -0.11    0.01   -2.04    0.28    0.00    0.00      -1.25   -4.40    0.60
#  19    1.20   -1.83    0.49   -0.28   -0.27    0.00    0.00      -0.69   -0.80   -0.77
#  20   -1.01   -1.99    1.14    0.09   -0.15    0.00    0.00      -1.91    0.30   -0.48
#  21   -0.73   -0.98    0.23    0.00   -0.12    0.00    0.00      -1.60   -0.01   -0.47
#  22   -1.45   -0.65    0.07    0.09   -0.11    0.00    0.00      -2.05    0.39   -0.47
#  23   -1.26   -0.65    0.05    0.26   -0.10    0.00    0.00      -1.70    1.04   -0.39
#  24   -1.35   -0.94    0.07    0.69   -0.13    0.00    0.00      -1.66    2.15   -0.39
#  25    0.60   -0.21    0.02   -0.41   -0.06    0.00    0.00      -0.06   -1.88   -0.28
#  26    0.65   -0.06    0.00   -0.07   -0.01    0.00    0.00       0.50   -1.41   -0.28
#  27    1.61   -0.28    0.04   -0.41   -0.09    0.00    0.00       0.88   -1.29   -0.28
#  28    2.24   -0.35    0.08   -0.73   -0.08    0.00    0.00       1.16   -2.14   -0.24
#  29    6.78   -1.01    1.99   -1.30   -0.10    0.00    0.00       6.36   -2.77   -0.22
#  30    0.66   -0.77    1.32   -0.10   -0.08    0.00    0.00       1.03   -0.34   -0.28
#  31    0.58   -0.16    0.04    0.02   -0.04    0.00    0.00       0.44    0.16   -0.28
#  32    1.06   -0.09    0.01   -0.04   -0.03    0.00    0.00       0.91   -0.42   -0.28
#  33    2.61   -0.10    0.00   -0.13   -0.02    0.00    0.00       2.37   -1.32   -0.17

@<TRIPOS>MOLECULE
       AVX17286_0       100
   33    36     0     0     0



@<TRIPOS>ATOM
      1 O1         13.5945   -20.6230     9.9941 O.co2      1          -0.6687
      2 C1         14.5655   -21.3625     9.9077 C.2        1           0.5179
      3 O2         14.4550   -22.5510    10.1764 O.co2      1          -0.6598
      4 C2         15.8641   -20.8238     9.4749 C.ar       1          -0.0891
      5 C3         15.9971   -19.4677     9.1727 C.ar       1           0.0696
      6 O3         15.0981   -18.4456     9.1958 O.3        1          -0.2731
      7 C4         15.8856   -17.2403     9.1930 C.3        1           0.2040
      8 O4         17.1036   -17.6270     8.5299 O.3        1          -0.3130
      9 C5         17.2360   -18.9643     8.7618 C.ar       1           0.0275
     10 C6         18.3315   -19.8087     8.6543 C.ar       1          -0.1129
     11 C7         18.2154   -21.1519     8.9493 C.ar       1          -0.0940
     12 C8         16.9900   -21.6763     9.3674 C.ar       1          -0.0660
     13 C9         16.8687   -23.1001     9.6865 C.2        1           0.1406
     14 C10        17.0945   -23.5391    10.9717 C.2        1          -0.2071
     15 C11        17.2061   -24.9299    11.4466 C.2        1           0.5165
     16 O5         17.1018   -26.0411    10.6785 O.3        1          -0.5803
     17 N1         17.4229   -24.9079    12.7365 N.pl3      1          -0.5919
     18 H1         17.5324   -25.7061    13.2766 H          1           0.4163
     19 C12        17.4789   -23.6467    13.2379 C.ar       1           0.1131
     20 C13        17.6863   -23.1620    14.5337 C.ar       1          -0.1328
     21 C14        17.6947   -21.8043    14.7686 C.ar       1          -0.0980
     22 C15        17.4994   -20.9034    13.7332 C.ar       1          -0.1366
     23 C16        17.2930   -21.3582    12.4456 C.ar       1          -0.0765
     24 C17        17.2871   -22.7224    12.1903 C.ar       1          -0.0776
     25 H2         15.3790   -16.4534     8.6344 H          1           0.1276
     26 H3         16.0917   -16.9154    10.2129 H          1           0.0794
     27 H4         19.2841   -19.4112     8.3364 H          1           0.1354
     28 H5         19.0758   -21.7988     8.8607 H          1           0.1403
     29 H6         16.6020   -23.8059     8.9137 H          1           0.1746
     30 H7         17.8396   -23.8522    15.3502 H          1           0.1242
     31 H8         17.8551   -21.4375    15.7717 H          1           0.1264
     32 H9         17.5081   -19.8423    13.9343 H          1           0.1261
     33 H10        17.1406   -20.6551    11.6400 H          1           0.1379
@<TRIPOS>BOND
     1    1    2 1
     2    2    3 2
     3    2    4 1
     4    4   12 ar
     5    4    5 ar
     6    5    9 ar
     7    5    6 1
     8    6    7 1
     9    7    8 1
    10    7   25 1
    11    7   26 1
    12    8    9 1
    13    9   10 ar
    14   10   11 ar
    15   10   27 1
    16   11   12 ar
    17   11   28 1
    18   12   13 1
    19   13   14 2
    20   13   29 1
    21   14   24 1
    22   14   15 1
    23   15   16 1
    24   15   17 2
    25   17   18 1
    26   17   19 1
    27   19   24 ar
    28   19   20 ar
    29   20   21 ar
    30   20   30 1
    31   21   22 ar
    32   21   31 1
    33   22   23 ar
    34   22   32 1
    35   23   24 ar
    36   23   33 1
