AVX17379_0, 3
##########                 Name:           AVX17379_0
##########          Protonation:                   99
##########               SMILES:   Cc1cc(nn1c2ccccc2C[NH3+])CO
##########            Long Name:   [2-[3-(hydroxymethyl)-5-methyl-pyrazol-1-yl]phenyl]methylammonium
##########          FlexRecCode: 1
##########               Number:                  422
##########   Ligand Source File: /raid1/people/rgc/Examples/sampl4/screening/ligands/build_1//sampl4-hivint-00000
##########           GlobalRank: 137
##########                 Rank:                    1
##########               Setnum:                   39
##########             Matchnum:                14627
##########                Cloud:                    1
##########        Electrostatic:             0.250134
##########        Van der Waals:           -16.217625
##########  Ligand Polar Desolv:             2.172291
########## Ligand Apolar Desolv:            -1.251291
##########      Internal Energy:             0.000000
##########      Receptor Energy: 0.0
########## Receptor Desolvation:             0.000000
########## Receptor Hydrophobic:             0.000000
##########         Total Energy: -15.05
##########        Ligand Charge:             1.000000
##########            Arbitrary:    +999.9990
##########     heavy atom count:   16
##########           pose count:    1
##########        Ligand Energy:             0.000000
# num electro vdwattr vdwrepu polsolv apolsol rdesolv rhydroe totalscore fullpol fullapo
#   1   -1.27   -0.97    0.26   -0.53   -0.06    0.00    0.00      -2.57   -1.64   -0.20
#   2    1.70   -0.76    0.05    0.46   -0.22    0.00    0.00       1.23    1.55   -0.74
#   3   -6.89   -0.78    0.08   -0.92   -0.13    0.00    0.00      -8.64   -3.29   -0.47
#   4    3.44   -1.27    0.23    0.26   -0.29    0.00    0.00       2.38    0.71   -0.79
#   5    7.01   -1.50    0.50    0.86   -0.07    0.00    0.00       6.80    1.89   -0.16
#   6  -23.46   -2.24    1.43   -2.68    0.68    0.00    0.00     -26.28   -6.60    1.67
#   7   -8.42   -2.03    1.77   -1.47    0.35    0.00    0.00      -9.80   -4.15    0.99
#   8   -6.97   -0.94    0.08   -1.68    0.19    0.00    0.00      -9.31   -4.99    0.57
#   9    2.32   -1.30    0.29    0.80   -0.24    0.00    0.00       1.87    2.13   -0.64
#  10   -1.14   -2.15    0.79   -1.05   -0.18    0.00    0.00      -3.73   -2.27   -0.39
#  11   -0.34   -2.22    0.76   -0.94   -0.25    0.00    0.00      -2.99   -1.76   -0.47
#  12   -0.61   -1.55    0.32   -1.12   -0.22    0.00    0.00      -3.18   -2.36   -0.47
#  13   -0.46   -1.41    0.34   -0.49   -0.17    0.00    0.00      -2.20   -1.31   -0.46
#  14   -1.47   -1.22    0.28   -0.82   -0.13    0.00    0.00      -3.36   -2.39   -0.37
#  15    0.31   -0.61    0.08    0.47   -0.14    0.00    0.00       0.11    1.62   -0.48
#  16   -4.04   -0.48    0.09   -3.62    0.15    0.00    0.00      -7.89  -20.49    0.87
#  17    2.30    0.00    0.00    0.83    0.03    0.00    0.00       3.15   17.49    0.59
#  18    3.60   -0.01    0.00    1.57    0.07    0.00    0.00       5.23   13.34    0.57
#  19    1.79   -0.01    0.00    2.36    0.08    0.00    0.00       4.22   17.17    0.58
#  20    1.06   -0.19    0.01    0.55   -0.06    0.00    0.00       1.37    2.59   -0.28
#  21    0.88   -0.51    0.18    0.36   -0.10    0.00    0.00       0.81    1.02   -0.28
#  22    0.71   -0.59    0.98    0.32   -0.05    0.00    0.00       1.36    1.16   -0.20
#  23    5.72   -0.18    0.05    0.18   -0.04    0.00    0.00       5.73    1.12   -0.28
#  24    3.40   -0.89    0.61    0.99   -0.15    0.00    0.00       3.95    1.91   -0.28
#  25    3.95   -0.42    0.10    0.31   -0.13    0.00    0.00       3.82    0.69   -0.28
#  26   11.84   -0.03    0.00    1.69    0.34    0.00    0.00      13.85    6.13    1.24
#  27    1.49   -0.64    0.48    0.48   -0.10    0.00    0.00       1.71    1.19   -0.25
#  28    0.17   -0.50    0.11    0.95   -0.15    0.00    0.00       0.58    1.75   -0.28
#  29    0.58   -0.25    0.02    0.82   -0.09    0.00    0.00       1.09    2.68   -0.28
#  30    0.65   -0.27    0.06    1.40   -0.07    0.00    0.00       1.77    5.65   -0.28
#  31    0.43   -0.38    0.29    1.34   -0.06    0.00    0.00       1.62    6.71   -0.28
#  32    1.98   -0.18    0.02    0.49   -0.04    0.00    0.00       2.27    2.60   -0.21

@<TRIPOS>MOLECULE
       AVX17379_0        99
   32    33     0     0     0



@<TRIPOS>ATOM
      1 C1         18.4457   -21.8812    11.8899 C.3        1          -0.1045
      2 C2         17.5440   -21.3842    10.7894 C.2        1           0.0838
      3 C3         16.1957   -21.4927    10.7523 C.2        1          -0.2251
      4 C4         15.7487   -20.9051     9.5637 C.2        1           0.0977
      5 C5         14.3140   -20.8030     9.1140 C.3        1           0.1532
      6 O1         13.7478   -19.5846     9.6006 O.3        1          -0.5653
      7 N1         16.7911   -20.4594     8.9098 N.2        1          -0.2997
      8 N2         17.9364   -20.7448     9.6643 N.pl3      1          -0.3545
      9 C6         19.2558   -20.4260     9.3141 C.ar       1           0.1772
     10 C7         20.1967   -21.4349     9.1558 C.ar       1          -0.1171
     11 C8         21.4956   -21.1177     8.8103 C.ar       1          -0.0639
     12 C9         21.8596   -19.7968     8.6219 C.ar       1          -0.1088
     13 C10        20.9250   -18.7902     8.7788 C.ar       1          -0.0724
     14 C11        19.6230   -19.1015     9.1192 C.ar       1          -0.1579
     15 C12        18.6034   -18.0040     9.2844 C.3        1           0.0379
     16 N3         18.6032   -17.5420    10.6788 N.4        1          -0.6350
     17 H1         17.9206   -16.8072    10.7895 H          1           0.4394
     18 H2         18.3705   -18.3117    11.2883 H          1           0.4291
     19 H3         19.5182   -17.1895    10.9166 H          1           0.4342
     20 H4         17.8445   -22.3552    12.6658 H          1           0.0831
     21 H5         19.1505   -22.6059    11.4827 H          1           0.0985
     22 H6         18.9940   -21.0416    12.3173 H          1           0.0785
     23 H7         15.5743   -21.9520    11.5068 H          1           0.1649
     24 H8         14.2730   -20.8131     8.0249 H          1           0.0718
     25 H9         13.7491   -21.6486     9.5066 H          1           0.0762
     26 H10        14.2013   -18.7889     9.2907 H          1           0.3983
     27 H11        19.9131   -22.4665     9.3031 H          1           0.1429
     28 H12        22.2279   -21.9019     8.6874 H          1           0.1478
     29 H13        22.8762   -19.5512     8.3520 H          1           0.1458
     30 H14        21.2123   -17.7595     8.6314 H          1           0.1447
     31 H15        18.8548   -17.1725     8.6262 H          1           0.1456
     32 H16        17.6149   -18.3849     9.0276 H          1           0.1535
@<TRIPOS>BOND
     1    1    2 1
     2    1   20 1
     3    1   21 1
     4    1   22 1
     5    2    8 1
     6    2    3 2
     7    3    4 1
     8    3   23 1
     9    4    5 1
    10    4    7 2
    11    5    6 1
    12    5   24 1
    13    5   25 1
    14    6   26 1
    15    7    8 1
    16    8    9 1
    17    9   14 ar
    18    9   10 ar
    19   10   11 ar
    20   10   27 1
    21   11   12 ar
    22   11   28 1
    23   12   13 ar
    24   12   29 1
    25   13   14 ar
    26   13   30 1
    27   14   15 1
    28   15   16 1
    29   15   31 1
    30   15   32 1
    31   16   17 1
    32   16   18 1
    33   16   19 1
