AVX17260_0, 3
##########                 Name:           AVX17260_0
##########          Protonation:                  100
##########               SMILES:   c1ccc2c(c1)[C@H](C(=O)N2)Cc3ccc4c(c3C(=O)[O-])OCO4
##########            Long Name:   5-[[(3R)-2-oxoindolin-3-yl]methyl]-1,3-benzodioxole-4-carboxylate
##########          FlexRecCode: 1
##########               Number:                   61
##########   Ligand Source File: /raid1/people/rgc/Examples/sampl4/screening/ligands/build_1//sampl4-hivint-00000
##########           GlobalRank: 71
##########                 Rank:                    1
##########               Setnum:                    2
##########             Matchnum:                14437
##########                Cloud:                    1
##########        Electrostatic:           -44.796715
##########        Van der Waals:           -18.160566
##########  Ligand Polar Desolv:            25.146727
########## Ligand Apolar Desolv:            -2.489772
##########      Internal Energy:             0.000000
##########      Receptor Energy: 0.0
########## Receptor Desolvation:             0.000000
########## Receptor Hydrophobic:             0.000000
##########         Total Energy: -40.3
##########        Ligand Charge:            -1.000000
##########            Arbitrary:    +999.9990
##########     heavy atom count:   23
##########           pose count:    1
##########        Ligand Energy:             0.000000
# num electro vdwattr vdwrepu polsolv apolsol rdesolv rhydroe totalscore fullpol fullapo
#   1  -29.14   -2.66    1.29   14.31   -0.19    0.00    0.00     -16.39   30.95   -0.42
#   2   20.75   -1.51    0.31   -8.03   -0.04    0.00    0.00      11.47  -20.31   -0.11
#   3  -30.90   -2.07    0.85   13.21   -0.16    0.00    0.00     -19.08   31.41   -0.39
#   4   -2.20   -0.72    0.06    1.46   -0.10    0.00    0.00      -1.50    5.72   -0.40
#   5    0.74   -0.67    0.05    0.13   -0.08    0.00    0.00       0.16    0.53   -0.33
#   6   -4.39   -1.20    0.22    3.17    0.15    0.00    0.00      -2.05   10.07    0.48
#   7    1.30   -1.18    0.72   -1.00    0.01    0.00    0.00      -0.15   -3.23    0.02
#   8   -1.93   -0.45    0.03    1.07    0.10    0.00    0.00      -1.19    5.36    0.52
#   9    0.22   -0.54    0.07   -0.10   -0.06    0.00    0.00      -0.42   -0.53   -0.33
#  10   -1.12   -1.08    0.86    0.21   -0.09    0.00    0.00      -1.20    1.15   -0.47
#  11   -1.21   -0.67    0.15    0.23   -0.08    0.00    0.00      -1.58    1.13   -0.39
#  12   -1.59   -0.59    0.08    0.38   -0.07    0.00    0.00      -1.79    1.86   -0.32
#  13   -1.35   -0.62    0.28    0.19   -0.04    0.00    0.00      -1.54    0.83   -0.18
#  14   -1.76   -0.55    0.03    0.68   -0.06    0.00    0.00      -1.67    2.14   -0.20
#  15    8.60   -1.10    0.12   -3.23   -0.21    0.00    0.00       4.19   -9.92   -0.66
#  16   -5.41   -0.74    0.05    2.96    0.10    0.00    0.00      -3.03   11.01    0.38
#  17  -10.98   -2.27    1.09    3.08    0.76    0.00    0.00      -8.33    7.37    1.81
#  18    3.47   -2.29    0.72   -0.71   -0.36    0.00    0.00       0.85   -1.51   -0.76
#  19   -4.02   -4.16    3.55    0.35   -0.30    0.00    0.00      -4.58    0.56   -0.48
#  20   -2.58   -5.63    6.62    0.17   -0.30    0.00    0.00      -1.72    0.27   -0.47
#  21   -3.71   -4.16    3.02    0.72   -0.27    0.00    0.00      -4.40    1.27   -0.47
#  22   -1.45   -1.96    0.52    0.91   -0.22    0.00    0.00      -2.21    1.96   -0.47
#  23   -3.02   -1.50    0.27    1.34   -0.16    0.00    0.00      -3.06    3.35   -0.39
#  24    0.69   -0.63    0.82   -0.79   -0.09    0.00    0.00       0.00   -2.48   -0.28
#  25    0.13   -0.64    1.09   -0.47   -0.07    0.00    0.00       0.03   -1.81   -0.28
#  26    0.79   -0.51    0.85   -0.54   -0.06    0.00    0.00       0.52   -2.62   -0.28
#  27    1.36   -0.14    0.02   -0.33   -0.03    0.00    0.00       0.88   -2.80   -0.28
#  28    2.24   -0.33    0.54   -0.38   -0.04    0.00    0.00       2.03   -2.53   -0.27
#  29    4.13   -0.26    0.12   -0.20   -0.06    0.00    0.00       3.75   -0.89   -0.25
#  30    1.98   -0.19    0.01   -0.21   -0.05    0.00    0.00       1.54   -1.05   -0.23
#  31    3.78   -0.11    0.03   -1.36    0.23    0.00    0.00       2.58   -3.42    0.59
#  32    2.87   -0.73    0.27   -0.40   -0.20    0.00    0.00       1.82   -0.57   -0.28
#  33    3.09   -1.11    0.63   -0.28   -0.20    0.00    0.00       2.12   -0.40   -0.28
#  34    2.80   -0.96    0.63   -0.87   -0.18    0.00    0.00       1.42   -1.36   -0.28
#  35    3.04   -0.23    0.02   -0.51   -0.09    0.00    0.00       2.24   -1.63   -0.28

@<TRIPOS>MOLECULE
       AVX17260_0       100
   35    38     0     0     0



@<TRIPOS>ATOM
      1 O1         15.3688   -21.4594     8.6197 O.co2      1          -0.6800
      2 C1         15.1113   -20.5958     9.4470 C.2        1           0.5351
      3 O2         13.9595   -20.2089     9.5892 O.co2      1          -0.6766
      4 C2         16.1863   -20.0269    10.2758 C.ar       1          -0.0833
      5 C3         16.8832   -18.8921     9.8437 C.ar       1           0.0424
      6 O3         16.7818   -18.1241     8.7271 O.3        1          -0.2993
      7 C4         18.0169   -17.4014     8.6141 C.3        1           0.2107
      8 O4         18.4056   -17.2743     9.9902 O.3        1          -0.3171
      9 C5         17.8992   -18.3622    10.6365 C.ar       1           0.0206
     10 C6         18.2145   -18.9573    11.8447 C.ar       1          -0.1153
     11 C7         17.5250   -20.0808    12.2729 C.ar       1          -0.0884
     12 C8         16.5147   -20.6136    11.5035 C.ar       1          -0.0678
     13 C9         15.7666   -21.8317    11.9808 C.3        1          -0.0439
     14 C10        16.7469   -22.9916    12.1672 C.3        1          -0.0857
     15 C11        16.1302   -24.0742    13.0272 C.2        1           0.5320
     16 O5         15.7589   -23.9578    14.1760 O.2        1          -0.4862
     17 N1         16.0707   -25.1882    12.2782 N.am       1          -0.6648
     18 C12        16.5802   -24.9895    10.9944 C.ar       1           0.1403
     19 C13        16.7053   -25.8659     9.9181 C.ar       1          -0.1460
     20 C14        17.2514   -25.4288     8.7292 C.ar       1          -0.0919
     21 C15        17.6782   -24.1202     8.5950 C.ar       1          -0.1418
     22 C16        17.5569   -23.2439     9.6592 C.ar       1          -0.0572
     23 C17        17.0125   -23.6777    10.8471 C.ar       1          -0.1210
     24 H1         18.7542   -17.9744     8.0515 H          1           0.1238
     25 H2         17.8566   -16.4227     8.1618 H          1           0.0765
     26 H3         19.0025   -18.5448    12.4575 H          1           0.1252
     27 H4         17.7790   -20.5387    13.2173 H          1           0.1252
     28 H5         15.2806   -21.6105    12.9310 H          1           0.0714
     29 H6         15.0133   -22.1077    11.2430 H          1           0.0994
     30 H7         17.6786   -22.6359    12.6071 H          1           0.1450
     31 H8         15.7145   -26.0335    12.5936 H          1           0.4075
     32 H9         16.3744   -26.8893    10.0151 H          1           0.1215
     33 H10        17.3466   -26.1125     7.8986 H          1           0.1262
     34 H11        18.1055   -23.7831     7.6620 H          1           0.1277
     35 H12        17.8893   -22.2214     9.5583 H          1           0.1356
@<TRIPOS>BOND
     1    1    2 1
     2    2    3 2
     3    2    4 1
     4    4   12 ar
     5    4    5 ar
     6    5    9 ar
     7    5    6 1
     8    6    7 1
     9    7    8 1
    10    7   24 1
    11    7   25 1
    12    8    9 1
    13    9   10 ar
    14   10   11 ar
    15   10   26 1
    16   11   12 ar
    17   11   27 1
    18   12   13 1
    19   13   14 1
    20   13   28 1
    21   13   29 1
    22   14   23 1
    23   14   15 1
    24   14   30 1
    25   15   16 2
    26   15   17 am
    27   17   18 1
    28   17   31 1
    29   18   23 ar
    30   18   19 ar
    31   19   20 ar
    32   19   32 1
    33   20   21 ar
    34   20   33 1
    35   21   22 ar
    36   21   34 1
    37   22   23 ar
    38   22   35 1
