AVX101118_1, 3
##########                 Name:          AVX101118_0
##########          Protonation:                   78
##########               SMILES:   C[NH+](Cc1ccccc1C(=O)NCC2CCCCC2)Cc3ccc4c(c3C(=O)[O-])OCCO4
##########            Long Name:   nyl]methyl-methyl-ammonio]methyl]-2,3-dihydro-1,4-benzodioxine-5-carboxylate
##########          FlexRecCode: 1
##########               Number:                   29
##########   Ligand Source File: /raid1/people/rgc/Examples/sampl4/screening/ligands/build_1//sampl4-hivint-00000
##########           GlobalRank: 31
##########                 Rank:                    1
##########               Setnum:                  243
##########             Matchnum:                 9605
##########                Cloud:                    1
##########        Electrostatic:           -42.417988
##########        Van der Waals:           -15.784329
##########  Ligand Polar Desolv:            16.585676
########## Ligand Apolar Desolv:            -2.742640
##########      Internal Energy:             0.000000
##########      Receptor Energy: 0.0
########## Receptor Desolvation:             0.000000
########## Receptor Hydrophobic:             0.000000
##########         Total Energy: -44.36
##########        Ligand Charge:             0.000000
##########            Arbitrary:    +999.9990
##########     heavy atom count:   33
##########           pose count:    1
##########        Ligand Energy:             0.000000
# num electro vdwattr vdwrepu polsolv apolsol rdesolv rhydroe totalscore fullpol fullapo
#   1   -0.47   -0.23    0.01   -0.14   -0.05    0.00    0.00      -0.88   -1.05   -0.41
#   2   -2.43   -0.58    0.04   -0.80    0.04    0.00    0.00      -3.73   -3.23    0.16
#   3    2.04   -0.01    0.00    0.53    0.04    0.00    0.00       2.60    4.37    0.32
#   4    0.07   -0.59    0.07    0.09   -0.07    0.00    0.00      -0.43    0.36   -0.30
#   5   -0.12   -0.28    0.01   -0.09   -0.03    0.00    0.00      -0.52   -0.84   -0.30
#   6   -0.15   -0.19    0.00   -0.08   -0.03    0.00    0.00      -0.45   -1.16   -0.40
#   7   -0.10   -0.07    0.00   -0.03   -0.01    0.00    0.00      -0.22   -1.12   -0.47
#   8   -0.09   -0.04    0.00   -0.03   -0.01    0.00    0.00      -0.16   -1.30   -0.47
#   9   -0.07   -0.06    0.00   -0.02   -0.01    0.00    0.00      -0.16   -0.92   -0.44
#  10   -0.13   -0.17    0.00   -0.08   -0.02    0.00    0.00      -0.40   -1.31   -0.40
#  11    0.53   -0.40    0.05    0.42   -0.08    0.00    0.00       0.53    3.54   -0.63
#  12   -0.54   -0.54    0.05   -0.29    0.05    0.00    0.00      -1.26   -1.76    0.29
#  13   -0.59   -0.44    0.06   -0.64    0.27    0.00    0.00      -1.34   -5.17    2.20
#  14    0.10   -0.64    0.18    0.11   -0.07    0.00    0.00      -0.32    0.60   -0.38
#  15   -0.08   -0.36    0.05   -0.07   -0.02    0.00    0.00      -0.48   -0.43   -0.15
#  16   -0.09   -0.68    0.20   -0.14   -0.05    0.00    0.00      -0.76   -0.59   -0.22
#  17   -0.07   -0.30    0.02   -0.10   -0.05    0.00    0.00      -0.49   -0.54   -0.25
#  18   -0.06   -0.51    0.13   -0.07   -0.05    0.00    0.00      -0.56   -0.33   -0.25
#  19   -0.08   -0.40    0.10   -0.05   -0.04    0.00    0.00      -0.45   -0.32   -0.25
#  20   -0.10   -0.47    0.09   -0.07   -0.04    0.00    0.00      -0.59   -0.36   -0.22
#  21    1.16   -1.35    0.42    0.01   -0.09    0.00    0.00       0.15    0.04   -0.26
#  22   -1.87   -1.73    0.68    0.06   -0.13    0.00    0.00      -2.99    0.17   -0.39
#  23   -2.03   -1.44    0.34   -0.14   -0.11    0.00    0.00      -3.37   -0.43   -0.34
#  24   -1.22   -1.19    0.18   -0.04   -0.16    0.00    0.00      -2.44   -0.12   -0.46
#  25    0.66   -1.17    0.19   -0.03   -0.11    0.00    0.00      -0.45   -0.08   -0.30
#  26   -3.77   -1.26    0.24    0.57    0.28    0.00    0.00      -3.93    1.39    0.68
#  27    0.26   -2.00    1.58   -0.05   -0.07    0.00    0.00      -0.29   -0.10   -0.14
#  28    0.21   -1.18    0.32    0.03   -0.06    0.00    0.00      -0.69    0.06   -0.14
#  29   -7.25   -1.03    0.09    2.27    0.11    0.00    0.00      -5.80    5.52    0.27
#  30    2.64   -1.27    0.35   -0.20   -0.10    0.00    0.00       1.41   -0.59   -0.30
#  31   -3.38   -1.66    0.87    0.98   -0.14    0.00    0.00      -3.33    2.83   -0.41
#  32   21.96   -1.84    0.43   -4.65   -0.07    0.00    0.00      15.85  -11.01   -0.17
#  33  -34.81   -2.76    4.86    5.93   -0.13    0.00    0.00     -26.91   15.53   -0.33
#  34  -31.34   -3.34    1.55   11.52   -0.31    0.00    0.00     -21.92   22.17   -0.59
#  35    1.18   -0.10    0.01    0.14   -0.02    0.00    0.00       1.21    1.47   -0.18
#  36    1.17   -0.06    0.00    0.17   -0.01    0.00    0.00       1.27    2.97   -0.22
#  37    0.31   -0.03    0.00    0.06   -0.01    0.00    0.00       0.33    1.99   -0.28
#  38    0.28   -0.35    0.19    0.14   -0.05    0.00    0.00       0.21    0.60   -0.20
#  39    0.31   -0.32    0.09    0.48   -0.07    0.00    0.00       0.49    1.94   -0.27
#  40    0.25   -0.06    0.00    0.12   -0.01    0.00    0.00       0.30    2.72   -0.28
#  41    0.16   -0.01    0.00    0.03    0.00    0.00    0.00       0.18    2.13   -0.28
#  42    0.11    0.00    0.00    0.01    0.00    0.00    0.00       0.12    1.99   -0.28
#  43    0.10   -0.01    0.00    0.02    0.00    0.00    0.00       0.11    2.05   -0.22
#  44    0.31    0.00    0.00    0.19    0.02    0.00    0.00       0.51    4.41    0.39
#  45    0.07   -0.09    0.01    0.02   -0.03    0.00    0.00      -0.03    0.20   -0.28
#  46    0.07   -0.86    1.23    0.01   -0.08    0.00    0.00       0.37    0.03   -0.28
#  47    0.05   -0.03    0.00    0.02   -0.01    0.00    0.00       0.03    0.75   -0.28
#  48    0.06   -0.77    1.34    0.04   -0.09    0.00    0.00       0.58    0.11   -0.28
#  49    0.04   -0.14    0.02    0.11   -0.04    0.00    0.00      -0.01    0.70   -0.24
#  50    0.03   -0.11    0.01    0.03   -0.04    0.00    0.00      -0.08    0.24   -0.28
#  51    0.03   -0.03    0.00    0.01   -0.01    0.00    0.00       0.00    0.43   -0.28
#  52    0.04   -0.44    0.38    0.01   -0.08    0.00    0.00      -0.09    0.04   -0.28
#  53    0.02   -0.08    0.01    0.01   -0.02    0.00    0.00      -0.07    0.13   -0.28
#  54    0.04   -0.24    0.15    0.01   -0.04    0.00    0.00      -0.07    0.07   -0.28
#  55    0.03   -0.03    0.00    0.01   -0.01    0.00    0.00       0.00    0.27   -0.28
#  56    0.06   -0.06    0.00    0.01   -0.02    0.00    0.00      -0.01    0.19   -0.28
#  57    0.08   -0.41    0.27    0.01   -0.07    0.00    0.00      -0.13    0.03   -0.28
#  58    4.02   -0.43    0.17   -0.09   -0.07    0.00    0.00       3.60   -0.30   -0.23
#  59    2.32   -1.27    2.12   -0.18   -0.11    0.00    0.00       2.87   -0.42   -0.26
#  60    0.68   -0.33    0.13    0.57   -0.04    0.00    0.00       1.02    2.41   -0.18
#  61    1.03   -0.22    0.03    0.26   -0.07    0.00    0.00       1.03    1.05   -0.28
#  62    1.92   -0.91    1.12    0.17   -0.15    0.00    0.00       2.15    0.32   -0.28
#  63    0.60   -1.34    3.15   -0.12   -0.13    0.00    0.00       2.16   -0.25   -0.28
#  64    1.57   -0.60    0.39   -0.21   -0.11    0.00    0.00       1.04   -0.55   -0.28
#  65    1.84   -0.26    0.03   -0.20   -0.07    0.00    0.00       1.34   -0.81   -0.28

@<TRIPOS>MOLECULE
      AVX101118_0        78
   65    68     0     0     0



@<TRIPOS>ATOM
      1 C1         14.8734   -16.7624    10.7814 C.3        1          -0.0639
      2 N1         15.1663   -16.5636     9.3556 N.4        1          -0.3784
      3 H1         16.1196   -16.2503     9.2487 H          1           0.4146
      4 C2         14.2540   -15.5529     8.8044 C.3        1           0.0370
      5 C3         14.0703   -14.4422     9.8063 C.ar       1          -0.0859
      6 C4         13.0601   -14.5160    10.7431 C.ar       1          -0.0990
      7 C5         12.8902   -13.4972    11.6634 C.ar       1          -0.0864
      8 C6         13.7310   -12.3982    11.6513 C.ar       1          -0.1006
      9 C7         14.7452   -12.3122    10.7202 C.ar       1          -0.0812
     10 C8         14.9253   -13.3392     9.7922 C.ar       1          -0.1221
     11 C9         16.0139   -13.2564     8.7950 C.2        1           0.5528
     12 O1         16.8747   -14.1139     8.7624 O.2        1          -0.5447
     13 N2         16.0515   -12.2302     7.9222 N.am       1          -0.7102
     14 C10        17.1300   -12.1482     6.9341 C.3        1           0.1178
     15 C11        16.9389   -10.8980     6.0731 C.3        1          -0.0993
     16 C12        15.8855   -11.1748     4.9985 C.3        1          -0.1158
     17 C13        15.6946    -9.9245     4.1376 C.3        1          -0.1202
     18 C14        17.0210    -9.5582     3.4690 C.3        1          -0.1229
     19 C15        18.0743    -9.2813     4.5435 C.3        1          -0.1194
     20 C16        18.2655   -10.5316     5.4044 C.3        1          -0.1130
     21 C17        14.9842   -17.8317     8.6369 C.3        1           0.0673
     22 C18        16.2006   -18.6995     8.8330 C.ar       1          -0.0905
     23 C19        17.4606   -18.1560     8.7176 C.ar       1          -0.1640
     24 C20        18.5838   -18.9466     8.8973 C.ar       1          -0.1011
     25 C21        18.4528   -20.2932     9.1958 C.ar       1           0.0390
     26 O2         19.5668   -21.0552     9.3732 O.3        1          -0.3085
     27 C22        19.3949   -22.4736     9.2903 C.3        1           0.0191
     28 C23        18.1848   -22.8409    10.1574 C.3        1           0.0110
     29 O3         17.0446   -22.1761     9.6041 O.3        1          -0.2524
     30 C24        17.1880   -20.8576     9.3147 C.ar       1           0.1031
     31 C25        16.0505   -20.0568     9.1382 C.ar       1          -0.1131
     32 C26        14.7062   -20.6418     9.2683 C.2        1           0.5208
     33 O4         14.1463   -20.6524    10.3561 O.co2      1          -0.6891
     34 O5         14.1486   -21.1174     8.2888 O.co2      1          -0.6418
     35 H2         13.8438   -17.1008    10.8971 H          1           0.1292
     36 H3         15.5505   -17.5123    11.1903 H          1           0.1112
     37 H4         15.0086   -15.8213    11.3146 H          1           0.1227
     38 H5         14.6746   -15.1467     7.8846 H          1           0.1595
     39 H6         13.2890   -16.0125     8.5908 H          1           0.1322
     40 H7         12.4002   -15.3708    10.7578 H          1           0.1424
     41 H8         12.0977   -13.5597    12.3945 H          1           0.1401
     42 H9         13.5927   -11.6059    12.3721 H          1           0.1397
     43 H10        15.4007   -11.4539    10.7118 H          1           0.1339
     44 H11        15.3645   -11.5459     7.9482 H          1           0.4031
     45 H12        18.0898   -12.0925     7.4476 H          1           0.0769
     46 H13        17.1088   -13.0336     6.2987 H          1           0.0775
     47 H14        16.6082   -10.0711     6.7016 H          1           0.0781
     48 H15        16.2163   -12.0017     4.3701 H          1           0.0672
     49 H16        14.9406   -11.4359     5.4749 H          1           0.0578
     50 H17        14.9440   -10.1219     3.3721 H          1           0.0636
     51 H18        15.3637    -9.0977     4.7661 H          1           0.0618
     52 H19        17.3517   -10.3851     2.8405 H          1           0.0631
     53 H20        16.8848    -8.6675     2.8556 H          1           0.0630
     54 H21        19.0194    -9.0202     4.0672 H          1           0.0659
     55 H22        17.7435    -8.4544     5.1721 H          1           0.0623
     56 H23        19.0158   -10.3343     6.1700 H          1           0.0673
     57 H24        18.5961   -11.3584     4.7760 H          1           0.0680
     58 H25        14.1047   -18.3460     9.0245 H          1           0.1592
     59 H26        14.8487   -17.6308     7.5742 H          1           0.1450
     60 H27        17.5738   -17.1073     8.4854 H          1           0.1136
     61 H28        19.5676   -18.5108     8.8039 H          1           0.1350
     62 H29        19.2110   -22.7643     8.2560 H          1           0.1227
     63 H30        20.2858   -22.9769     9.6660 H          1           0.0782
     64 H31        18.0296   -23.9196    10.1386 H          1           0.0765
     65 H32        18.3479   -22.5057    11.1816 H          1           0.1245
@<TRIPOS>BOND
     1    1    2 1
     2    1   35 1
     3    1   36 1
     4    1   37 1
     5    2    3 1
     6    2    4 1
     7    2   21 1
     8    4    5 1
     9    4   38 1
    10    4   39 1
    11    5   10 ar
    12    5    6 ar
    13    6    7 ar
    14    6   40 1
    15    7    8 ar
    16    7   41 1
    17    8    9 ar
    18    8   42 1
    19    9   10 ar
    20    9   43 1
    21   10   11 1
    22   11   12 2
    23   11   13 am
    24   13   14 1
    25   13   44 1
    26   14   15 1
    27   14   45 1
    28   14   46 1
    29   15   20 1
    30   15   16 1
    31   15   47 1
    32   16   17 1
    33   16   48 1
    34   16   49 1
    35   17   18 1
    36   17   50 1
    37   17   51 1
    38   18   19 1
    39   18   52 1
    40   18   53 1
    41   19   20 1
    42   19   54 1
    43   19   55 1
    44   20   56 1
    45   20   57 1
    46   21   22 1
    47   21   58 1
    48   21   59 1
    49   22   31 ar
    50   22   23 ar
    51   23   24 ar
    52   23   60 1
    53   24   25 ar
    54   24   61 1
    55   25   30 ar
    56   25   26 1
    57   26   27 1
    58   27   28 1
    59   27   62 1
    60   27   63 1
    61   28   29 1
    62   28   64 1
    63   28   65 1
    64   29   30 1
    65   30   31 ar
    66   31   32 1
    67   32   33 1
    68   32   34 2
