AVX101121_0, 3
##########                 Name:          AVX101121_0
##########          Protonation:                   15
##########               SMILES:   CN(Cc1cccc(c1C(=O)[O-])OC)Cc2cc3ccccc3cc2C(=O)NCc4ccc(cc4)OC
##########            Long Name:   ethoxyphenyl)methylcarbamoyl]-2-naphthyl]methyl-methyl-amino]methyl]benzoate
##########          FlexRecCode: 1
##########               Number:                  113
##########   Ligand Source File: /raid1/people/rgc/Examples/sampl4/screening/ligands/build_1//sampl4-hivint-00000
##########           GlobalRank: 33
##########                 Rank:                    1
##########               Setnum:                  183
##########             Matchnum:                10724
##########                Cloud:                    1
##########        Electrostatic:           -43.752407
##########        Van der Waals:           -17.815189
##########  Ligand Polar Desolv:            20.442598
########## Ligand Apolar Desolv:            -2.792613
##########      Internal Energy:             0.000000
##########      Receptor Energy: 0.0
########## Receptor Desolvation:             0.000000
########## Receptor Hydrophobic:             0.000000
##########         Total Energy: -43.92
##########        Ligand Charge:            -1.000000
##########            Arbitrary:    +999.9990
##########     heavy atom count:   37
##########           pose count:    1
##########        Ligand Energy:             0.000000
# num electro vdwattr vdwrepu polsolv apolsol rdesolv rhydroe totalscore fullpol fullapo
#   1    0.02   -0.94    0.43    0.00    0.01    0.00    0.00      -0.48    0.00    0.03
#   2   -0.24   -1.30    0.76    0.66    0.27    0.00    0.00       0.15    2.29    0.93
#   3    0.10   -0.79    0.07   -0.21   -0.09    0.00    0.00      -0.92   -0.78   -0.31
#   4   -0.33   -1.19    0.30    0.29   -0.12    0.00    0.00      -1.06    0.99   -0.42
#   5   -0.08   -1.39    0.84    0.07   -0.11    0.00    0.00      -0.67    0.30   -0.45
#   6   -0.11   -0.50    0.06    0.17   -0.06    0.00    0.00      -0.43    1.11   -0.37
#   7    0.13   -0.19    0.01   -0.18   -0.05    0.00    0.00      -0.27   -1.70   -0.44
#   8   -0.80   -0.17    0.00    0.49    0.16    0.00    0.00      -0.32    7.24    2.32
#   9    0.51   -0.10    0.00   -0.34   -0.02    0.00    0.00       0.04   -9.25   -0.65
#  10   -0.45   -0.05    0.00    0.33    0.01    0.00    0.00      -0.16   12.81    0.32
#  11   -0.13   -0.16    0.00    0.18   -0.02    0.00    0.00      -0.13    2.96   -0.41
#  12   -0.04   -0.26    0.01    0.14   -0.04    0.00    0.00      -0.19    1.43   -0.39
#  13    0.61   -0.17    0.00   -0.35   -0.03    0.00    0.00       0.06   -3.66   -0.27
#  14   -5.79   -0.41    0.01    2.42    0.33    0.00    0.00      -3.43   14.15    1.92
#  15    0.29   -0.80    0.12   -0.24   -0.13    0.00    0.00      -0.77   -0.77   -0.43
#  16    1.81   -0.30    0.03   -0.51   -0.05    0.00    0.00       0.99   -3.13   -0.31
#  17   -0.27   -0.55    0.03    0.10   -0.07    0.00    0.00      -0.76    0.46   -0.32
#  18   -2.41   -0.77    0.12    0.70   -0.11    0.00    0.00      -2.46    2.77   -0.42
#  19   -1.28   -1.18    0.25    0.10   -0.17    0.00    0.00      -2.28    0.29   -0.47
#  20   -4.16   -1.40    0.21    1.52   -0.18    0.00    0.00      -4.01    3.51   -0.42
#  21    3.74   -1.06    0.09   -1.21   -0.12    0.00    0.00       1.43   -3.04   -0.31
#  22   -7.99   -1.48    0.35    4.35    0.16    0.00    0.00      -4.62   10.02    0.36
#  23    0.49   -1.45    0.50   -0.02    0.01    0.00    0.00      -0.46   -0.05    0.03
#  24   -4.01   -0.71    0.04    2.23   -0.11    0.00    0.00      -2.55    8.19   -0.41
#  25   20.66   -1.45    1.50   -5.63   -0.05    0.00    0.00      15.03  -19.44   -0.17
#  26  -24.46   -1.69    2.61    6.51   -0.07    0.00    0.00     -17.10   29.33   -0.31
#  27  -34.25   -2.21    2.35   13.01   -0.23    0.00    0.00     -21.32   33.79   -0.59
#  28   -0.13   -0.55    0.04    0.55   -0.07    0.00    0.00      -0.17    2.93   -0.36
#  29   -0.04   -0.66    0.13    0.20   -0.07    0.00    0.00      -0.44    1.19   -0.40
#  30   -0.13   -1.11    0.34    0.67   -0.11    0.00    0.00      -0.33    2.87   -0.46
#  31   -0.11   -0.75    0.16    0.17   -0.10    0.00    0.00      -0.63    0.85   -0.47
#  32   -0.10   -0.41    0.05    0.11   -0.06    0.00    0.00      -0.41    0.84   -0.47
#  33   -0.08   -0.30    0.03    0.06   -0.05    0.00    0.00      -0.35    0.56   -0.46
#  34   -0.06   -0.35    0.04    0.14   -0.04    0.00    0.00      -0.28    1.31   -0.40
#  35   -0.07   -0.17    0.01    0.01   -0.03    0.00    0.00      -0.26    0.13   -0.43
#  36   -0.04   -0.33    0.01    0.06   -0.05    0.00    0.00      -0.35    0.52   -0.45
#  37   -0.11   -0.47    0.02    0.27   -0.09    0.00    0.00      -0.38    1.34   -0.46
#  38    0.09   -0.37    0.28   -0.01   -0.06    0.00    0.00      -0.08   -0.06   -0.28
#  39    0.05   -0.10    0.00   -0.01   -0.02    0.00    0.00      -0.08   -0.08   -0.26
#  40    0.04   -0.43    0.15   -0.03   -0.08    0.00    0.00      -0.35   -0.09   -0.26
#  41    0.32   -0.29    0.08   -0.10   -0.05    0.00    0.00      -0.04   -0.41   -0.22
#  42    0.40   -0.62    1.19   -0.14   -0.06    0.00    0.00       0.77   -0.59   -0.28
#  43    0.07   -0.09    0.01   -0.06   -0.03    0.00    0.00      -0.10   -0.64   -0.28
#  44    0.05   -0.03    0.00   -0.02   -0.01    0.00    0.00      -0.01   -0.76   -0.28
#  45    0.69    0.00    0.00   -0.13    0.02    0.00    0.00       0.58   -2.92    0.44
#  46    0.36   -0.03    0.00   -0.01   -0.01    0.00    0.00       0.31   -0.45   -0.25
#  47    0.38   -0.07    0.00   -0.09   -0.01    0.00    0.00       0.21   -1.45   -0.22
#  48    1.19   -0.35    0.10   -0.35   -0.06    0.00    0.00       0.53   -1.36   -0.22
#  49    1.45   -0.30    0.06   -0.28   -0.06    0.00    0.00       0.86   -1.15   -0.23
#  50    0.13   -0.29    0.04   -0.24   -0.07    0.00    0.00      -0.42   -0.90   -0.28
#  51    1.36   -0.06    0.00   -0.05   -0.01    0.00    0.00       1.24   -0.91   -0.20
#  52    0.38   -0.23    0.19   -0.20   -0.04    0.00    0.00       0.10   -1.41   -0.27
#  53    1.02   -0.12    0.01   -0.29   -0.03    0.00    0.00       0.59   -2.45   -0.28
#  54    1.14   -0.25    0.05   -0.52   -0.08    0.00    0.00       0.35   -1.92   -0.28
#  55    1.72   -0.50    0.23   -0.98   -0.09    0.00    0.00       0.39   -2.48   -0.22
#  56    2.09   -0.48    0.11   -0.72   -0.12    0.00    0.00       0.89   -1.73   -0.28
#  57    0.66   -1.22    2.50   -0.48   -0.10    0.00    0.00       1.35   -1.26   -0.26
#  58    0.86   -0.22    0.02   -0.29   -0.06    0.00    0.00       0.32   -1.26   -0.26
#  59    0.34   -0.18    0.02   -0.44   -0.04    0.00    0.00      -0.30   -2.40   -0.22
#  60    0.22   -0.46    0.43   -0.50   -0.07    0.00    0.00      -0.39   -1.88   -0.28
#  61    0.11   -0.13    0.01   -0.24   -0.05    0.00    0.00      -0.30   -1.35   -0.28
#  62    0.08   -0.05    0.00   -0.03   -0.01    0.00    0.00      -0.01   -0.70   -0.28
#  63    0.09   -0.03    0.00   -0.02   -0.01    0.00    0.00       0.03   -0.73   -0.28
#  64    0.10   -0.02    0.00   -0.03    0.00    0.00    0.00       0.05   -1.35   -0.22
#  65    0.08   -0.04    0.00   -0.03   -0.01    0.00    0.00       0.01   -1.03   -0.28
#  66    0.09   -0.08    0.00   -0.07   -0.02    0.00    0.00      -0.08   -0.97   -0.28

@<TRIPOS>MOLECULE
      AVX101121_0        15
   66    69     0     0     0



@<TRIPOS>ATOM
      1 C1         25.1702   -13.9410    10.2290 C.3        1           0.0266
      2 O1         24.5062   -15.2050    10.2866 O.3        1          -0.3177
      3 C2         23.2439   -15.2163    10.7901 C.ar       1           0.1324
      4 C3         22.5424   -16.4098    10.8806 C.ar       1          -0.2111
      5 C4         21.2597   -16.4186    11.3931 C.ar       1          -0.0595
      6 C5         20.6746   -15.2393    11.8154 C.ar       1          -0.1442
      7 C6         19.2749   -15.2517    12.3737 C.3        1           0.1665
      8 N1         18.3136   -15.0533    11.2860 N.am       1          -0.7280
      9 C7         17.1373   -14.4420    11.5295 C.2        1           0.5588
     10 O2         16.8741   -14.0552    12.6515 O.2        1          -0.5233
     11 C8         16.1677   -14.2417    10.4324 C.ar       1          -0.1222
     12 C9         15.1968   -15.2252    10.1708 C.ar       1          -0.0224
     13 C10        15.1566   -16.4736    11.0142 C.3        1           0.1101
     14 N2         16.0119   -17.5022    10.4074 N.3        1          -0.5108
     15 C11        15.5543   -17.8347     9.0517 C.3        1           0.0180
     16 C12        16.0717   -18.7025    11.2522 C.3        1           0.1076
     17 C13        16.9561   -19.7330    10.5987 C.ar       1          -0.0138
     18 C14        18.1705   -19.3613    10.0649 C.ar       1          -0.1741
     19 C15        18.9882   -20.3042     9.4632 C.ar       1          -0.0927
     20 C16        18.5960   -21.6261     9.3914 C.ar       1          -0.2347
     21 C17        17.3770   -22.0197     9.9226 C.ar       1           0.1502
     22 O3         16.9903   -23.3176     9.8525 O.3        1          -0.2674
     23 C18        17.3719   -24.1676    10.9360 C.3        1           0.0229
     24 C19        16.5479   -21.0692    10.5382 C.ar       1          -0.1467
     25 C20        15.2548   -21.4751    11.1116 C.2        1           0.5247
     26 O4         15.1883   -21.8298    12.2805 O.co2      1          -0.6652
     27 O5         14.2462   -21.4578    10.4193 O.co2      1          -0.6800
     28 C21        14.2956   -15.0644     9.1689 C.ar       1          -0.0779
     29 C22        14.3247   -13.9026     8.3756 C.ar       1          -0.0314
     30 C23        13.4023   -13.7136     7.3332 C.ar       1          -0.0986
     31 C24        13.4547   -12.5789     6.5828 C.ar       1          -0.1181
     32 C25        14.4121   -11.5973     6.8316 C.ar       1          -0.1239
     33 C26        15.3222   -11.7449     7.8325 C.ar       1          -0.1042
     34 C27        15.2986   -12.9036     8.6294 C.ar       1          -0.0667
     35 C28        16.2184   -13.0845     9.6733 C.ar       1          -0.0778
     36 C29        21.3717   -14.0485    11.7268 C.ar       1          -0.0585
     37 C30        22.6567   -14.0351    11.2198 C.ar       1          -0.1530
     38 H1         26.1670   -14.0731     9.8081 H          1           0.1001
     39 H2         24.5982   -13.2584     9.6006 H          1           0.0562
     40 H3         25.2522   -13.5274    11.2341 H          1           0.0559
     41 H4         22.9988   -17.3312    10.5502 H          1           0.1289
     42 H5         20.7133   -17.3475    11.4638 H          1           0.1275
     43 H6         19.0846   -16.2103    12.8564 H          1           0.0783
     44 H7         19.1678   -14.4496    13.1040 H          1           0.0756
     45 H8         18.5236   -15.3620    10.3909 H          1           0.3989
     46 H9         15.5175   -16.2462    12.0172 H          1           0.0984
     47 H10        14.1318   -16.8404    11.0713 H          1           0.0569
     48 H11        16.2049   -18.5985     8.6258 H          1           0.0588
     49 H12        14.5323   -18.2111     9.0953 H          1           0.0653
     50 H13        15.5860   -16.9413     8.4281 H          1           0.0154
     51 H14        16.4797   -18.4400    12.2281 H          1           0.1219
     52 H15        15.0684   -19.1104    11.3755 H          1           0.0147
     53 H16        18.4864   -18.3298    10.1154 H          1           0.1093
     54 H17        19.9383   -20.0031     9.0472 H          1           0.1108
     55 H18        19.2395   -22.3547     8.9207 H          1           0.1158
     56 H19        17.0002   -25.1762    10.7548 H          1           0.0918
     57 H20        18.4588   -24.1897    11.0150 H          1           0.0440
     58 H21        16.9478   -23.7854    11.8645 H          1           0.0440
     59 H22        13.5560   -15.8284     8.9803 H          1           0.1539
     60 H23        12.6546   -14.4656     7.1277 H          1           0.1297
     61 H24        12.7437   -12.4375     5.7822 H          1           0.1206
     62 H25        14.4324   -10.7067     6.2209 H          1           0.1190
     63 H26        16.0589   -10.9763     8.0139 H          1           0.1227
     64 H27        16.9627   -12.3297     9.8803 H          1           0.1247
     65 H28        20.9126   -13.1285    12.0576 H          1           0.1342
     66 H29        23.2022   -13.1053    11.1542 H          1           0.1328
@<TRIPOS>BOND
     1    1    2 1
     2    1   38 1
     3    1   39 1
     4    1   40 1
     5    2    3 1
     6    3   37 ar
     7    3    4 ar
     8    4    5 ar
     9    4   41 1
    10    5    6 ar
    11    5   42 1
    12    6    7 1
    13    6   36 ar
    14    7    8 1
    15    7   43 1
    16    7   44 1
    17    8    9 am
    18    8   45 1
    19    9   10 2
    20    9   11 1
    21   11   35 ar
    22   11   12 ar
    23   12   13 1
    24   12   28 ar
    25   13   14 1
    26   13   46 1
    27   13   47 1
    28   14   15 1
    29   14   16 1
    30   15   48 1
    31   15   49 1
    32   15   50 1
    33   16   17 1
    34   16   51 1
    35   16   52 1
    36   17   24 ar
    37   17   18 ar
    38   18   19 ar
    39   18   53 1
    40   19   20 ar
    41   19   54 1
    42   20   21 ar
    43   20   55 1
    44   21   22 1
    45   21   24 ar
    46   22   23 1
    47   23   56 1
    48   23   57 1
    49   23   58 1
    50   24   25 1
    51   25   26 1
    52   25   27 2
    53   28   29 ar
    54   28   59 1
    55   29   34 ar
    56   29   30 ar
    57   30   31 ar
    58   30   60 1
    59   31   32 ar
    60   31   61 1
    61   32   33 ar
    62   32   62 1
    63   33   34 ar
    64   33   63 1
    65   34   35 ar
    66   35   64 1
    67   36   37 ar
    68   36   65 1
    69   37   66 1
