AVX16980_0, 3
##########                 Name:           AVX16980_0
##########          Protonation:                  100
##########               SMILES:   c1ccc2c(c1)/C(=C\c3cccc(c3)C(=O)[O-])/C(=[NH+]2)[O-]
##########            Long Name:   3-[(E)-(2-oxidoindol-1-ium-3-ylidene)methyl]benzoate
##########          FlexRecCode: 1
##########               Number:                   67
##########   Ligand Source File: /raid1/people/rgc/Examples/sampl4/screening/ligands/build_1//sampl4-hivint-00000
##########           GlobalRank: 55
##########                 Rank:                    1
##########               Setnum:                    3
##########             Matchnum:                20833
##########                Cloud:                    1
##########        Electrostatic:           -47.121334
##########        Van der Waals:           -13.653042
##########  Ligand Polar Desolv:            21.298555
########## Ligand Apolar Desolv:            -2.226404
##########      Internal Energy:             0.000000
##########      Receptor Energy: 0.0
########## Receptor Desolvation:             0.000000
########## Receptor Hydrophobic:             0.000000
##########         Total Energy: -41.7
##########        Ligand Charge:            -1.000000
##########            Arbitrary:    +999.9990
##########     heavy atom count:   20
##########           pose count:    1
##########        Ligand Energy:             0.000000
# num electro vdwattr vdwrepu polsolv apolsol rdesolv rhydroe totalscore fullpol fullapo
#   1  -35.99   -2.50    1.43   13.19   -0.18    0.00    0.00     -24.05   29.49   -0.40
#   2   24.82   -1.86    0.74   -7.10   -0.06    0.00    0.00      16.54  -17.54   -0.16
#   3  -33.95   -2.30    1.95   11.85   -0.16    0.00    0.00     -22.60   30.36   -0.40
#   4   -4.91   -1.15    0.16    2.13   -0.15    0.00    0.00      -3.92    5.99   -0.41
#   5   -1.39   -1.31    0.40    0.55   -0.14    0.00    0.00      -1.89    1.69   -0.43
#   6   -2.43   -1.21    0.35    0.41   -0.11    0.00    0.00      -2.98    1.30   -0.35
#   7    0.80   -1.48    0.37   -0.07   -0.15    0.00    0.00      -0.52   -0.21   -0.45
#   8   -1.33   -0.70    0.08    0.48   -0.09    0.00    0.00      -1.57    2.09   -0.41
#   9    1.28   -0.81    0.20   -1.45   -0.14    0.00    0.00      -0.93   -7.30   -0.71
#  10   -0.43   -2.38    3.20    2.53    0.12    0.00    0.00       3.04    9.33    0.44
#  11   -1.08   -0.26    0.01    0.53    0.18    0.00    0.00      -0.63    5.35    1.86
#  12    0.35    0.00    0.00   -0.07    0.02    0.00    0.00       0.29   -2.40    0.59
#  13    0.39   -0.28    0.01   -0.11   -0.08    0.00    0.00      -0.06   -0.98   -0.77
#  14   -0.16   -0.30    0.03    0.04   -0.05    0.00    0.00      -0.43    0.42   -0.48
#  15   -0.14   -0.60    0.19    0.02   -0.07    0.00    0.00      -0.60    0.12   -0.47
#  16   -0.77   -0.97    0.50    0.15   -0.08    0.00    0.00      -1.17    0.87   -0.47
#  17   -0.58   -0.86    0.47    0.18   -0.07    0.00    0.00      -0.85    1.03   -0.38
#  18   -0.62   -0.46    0.06    0.28   -0.06    0.00    0.00      -0.81    1.82   -0.39
#  19   -1.49   -1.12    0.16    0.13   -0.10    0.00    0.00      -2.42    0.35   -0.27
#  20   -2.78   -1.22    0.14    0.48   -0.19    0.00    0.00      -3.57    1.16   -0.46
#  21   -1.74   -1.08    0.11    0.63   -0.17    0.00    0.00      -2.26    1.63   -0.45
#  22    3.93   -0.28    0.05   -0.60   -0.07    0.00    0.00       3.03   -2.46   -0.27
#  23    1.51   -0.79    0.68   -0.89   -0.11    0.00    0.00       0.40   -2.25   -0.28
#  24    0.09   -0.03    0.00   -0.01   -0.01    0.00    0.00       0.05   -0.27   -0.28
#  25    0.11   -0.09    0.02   -0.01   -0.03    0.00    0.00       0.00   -0.12   -0.28
#  26    0.75   -0.18    0.05   -0.11   -0.04    0.00    0.00       0.47   -0.78   -0.28
#  27    1.77   -0.15    0.04   -0.16   -0.02    0.00    0.00       1.49   -1.22   -0.16
#  28    1.39   -0.24    0.05   -0.46   -0.06    0.00    0.00       0.68   -1.84   -0.24
#  29    1.64   -0.43    0.14   -0.65   -0.10    0.00    0.00       0.61   -1.90   -0.28
#  30    3.81   -0.24    0.03   -0.59   -0.07    0.00    0.00       2.95   -2.44   -0.27

@<TRIPOS>MOLECULE
       AVX16980_0       100
   30    32     0     0     0



@<TRIPOS>ATOM
      1 O1         13.5995   -21.0556     9.7584 O.co2      1          -0.6847
      2 C1         14.5111   -21.8290    10.0161 C.2        1           0.5199
      3 O2         14.2615   -22.9518    10.4312 O.co2      1          -0.6843
      4 C2         15.9122   -21.4092     9.8202 C.ar       1          -0.1391
      5 C3         16.1983   -20.1277     9.3526 C.ar       1          -0.0482
      6 C4         17.5280   -19.7392     9.1707 C.ar       1          -0.1226
      7 C5         17.8411   -18.3914     8.6791 C.2        1           0.0651
      8 C6         18.0225   -17.3690     9.5620 C.2        1          -0.1884
      9 C7         18.1242   -15.9302     9.2581 C.2        1           0.5649
     10 O3         18.0614   -15.4229     8.1533 O.3        1          -0.5054
     11 N1         18.3012   -15.2697    10.4387 N.pl3      1          -0.6639
     12 H1         18.3970   -14.3079    10.5208 H          1           0.4143
     13 C8         18.3254   -16.1575    11.5087 C.ar       1           0.1411
     14 C9         18.4793   -15.9492    12.8753 C.ar       1          -0.1452
     15 C10        18.4675   -17.0204    13.7452 C.ar       1          -0.0879
     16 C11        18.3031   -18.3114    13.2717 C.ar       1          -0.1431
     17 C12        18.1489   -18.5377    11.9191 C.ar       1          -0.0676
     18 C13        18.1534   -17.4639    11.0341 C.ar       1          -0.0941
     19 C14        18.5621   -20.6401     9.4595 C.ar       1          -0.0904
     20 C15        18.2684   -21.9064     9.9214 C.ar       1          -0.1484
     21 C16        16.9558   -22.2944    10.1088 C.ar       1          -0.0623
     22 H2         15.3964   -19.4388     9.1317 H          1           0.1332
     23 H3         17.9276   -18.2101     7.6178 H          1           0.1437
     24 H4         18.6087   -14.9470    13.2564 H          1           0.1228
     25 H5         18.5880   -16.8504    14.8049 H          1           0.1271
     26 H6         18.2958   -19.1421    13.9619 H          1           0.1279
     27 H7         18.0213   -19.5443    11.5491 H          1           0.1442
     28 H8         19.5908   -20.3425     9.3199 H          1           0.1198
     29 H9         19.0690   -22.5969    10.1417 H          1           0.1213
     30 H10        16.7347   -23.2859    10.4753 H          1           0.1304
@<TRIPOS>BOND
     1    1    2 1
     2    2    3 2
     3    2    4 1
     4    4   21 ar
     5    4    5 ar
     6    5    6 ar
     7    5   22 1
     8    6    7 1
     9    6   19 ar
    10    7    8 2
    11    7   23 1
    12    8   18 1
    13    8    9 1
    14    9   10 1
    15    9   11 2
    16   11   12 1
    17   11   13 1
    18   13   18 ar
    19   13   14 ar
    20   14   15 ar
    21   14   24 1
    22   15   16 ar
    23   15   25 1
    24   16   17 ar
    25   16   26 1
    26   17   18 ar
    27   17   27 1
    28   19   20 ar
    29   19   28 1
    30   20   21 ar
    31   20   29 1
    32   21   30 1
