AVX17558_3, 3
##########                 Name:           AVX17558_0
##########          Protonation:                  100
##########               SMILES:   c1ccc2c(c1)C[C@H]([C@@H]2Cc3ccc4c(c3C(=O)[O-])OCO4)NC(=O)CCC[NH3+]
##########            Long Name:   -(4-azaniumylbutanoylamino)indan-1-yl]methyl]-1,3-benzodioxole-4-carboxylate
##########          FlexRecCode: 1
##########               Number:                   66
##########   Ligand Source File: /raid1/people/rgc/Examples/sampl4/screening/ligands/build_1//sampl4-hivint-00000
##########           GlobalRank: 84
##########                 Rank:                    1
##########               Setnum:                    2
##########             Matchnum:                  855
##########                Cloud:                    1
##########        Electrostatic:           -31.514297
##########        Van der Waals:           -19.702663
##########  Ligand Polar Desolv:            16.842892
########## Ligand Apolar Desolv:            -4.017815
##########      Internal Energy:             0.000000
##########      Receptor Energy: 0.0
########## Receptor Desolvation:             0.000000
########## Receptor Hydrophobic:             0.000000
##########         Total Energy: -38.39
##########        Ligand Charge:             0.000000
##########            Arbitrary:    +999.9990
##########     heavy atom count:   29
##########           pose count:    1
##########        Ligand Energy:             0.000000
# num electro vdwattr vdwrepu polsolv apolsol rdesolv rhydroe totalscore fullpol fullapo
#   1   -3.53   -0.18    0.01   -1.91    0.08    0.00    0.00      -5.52  -19.39    0.86
#   2    2.96    0.00    0.00    0.76    0.03    0.00    0.00       3.74   14.97    0.58
#   3    1.29    0.00    0.00    0.53    0.02    0.00    0.00       1.84   14.73    0.58
#   4    2.15    0.00    0.00    0.54    0.02    0.00    0.00       2.71   16.16    0.60
#   5   -0.09   -0.20    0.01    0.10   -0.06    0.00    0.00      -0.24    0.78   -0.49
#   6   -0.93   -0.60    0.24   -0.46   -0.04    0.00    0.00      -1.78   -2.39   -0.20
#   7   -1.08   -0.50    0.07   -0.35   -0.05    0.00    0.00      -1.92   -1.53   -0.24
#   8    6.95   -0.61    0.04    0.35   -0.15    0.00    0.00       6.57    1.49   -0.66
#   9   -9.18   -0.49    0.05   -0.09    0.07    0.00    0.00      -9.63   -0.47    0.37
#  10  -10.87   -0.82    0.06    0.37    0.56    0.00    0.00     -10.70    1.32    1.96
#  11    3.44   -0.57    0.03   -0.29   -0.07    0.00    0.00       2.54   -0.90   -0.23
#  12   -1.64   -0.93    0.13    0.09   -0.10    0.00    0.00      -2.45    0.24   -0.27
#  13   -2.53   -2.63    0.98    0.38   -0.21    0.00    0.00      -4.01    0.76   -0.43
#  14   -2.22   -3.62    1.57    0.30   -0.29    0.00    0.00      -4.26    0.49   -0.47
#  15   -2.75   -4.58    2.37    0.45   -0.33    0.00    0.00      -4.84    0.64   -0.47
#  16   -2.91   -5.67    4.26    0.91   -0.34    0.00    0.00      -3.74    1.27   -0.47
#  17   -2.26   -5.69    7.00    1.25   -0.28    0.00    0.00       0.00    1.97   -0.45
#  18   -1.76   -3.33    2.34    0.76   -0.21    0.00    0.00      -2.19    1.43   -0.39
#  19   -0.78   -1.05    0.19    0.11   -0.06    0.00    0.00      -1.58    0.25   -0.13
#  20   -1.97   -1.27    0.35    0.38   -0.08    0.00    0.00      -2.58    0.86   -0.17
#  21   -0.63   -1.40    0.41    0.09   -0.11    0.00    0.00      -1.64    0.25   -0.31
#  22   -1.79   -1.46    0.34    0.18   -0.18    0.00    0.00      -2.91    0.44   -0.45
#  23   -0.98   -1.35    0.45   -0.02   -0.17    0.00    0.00      -2.07   -0.07   -0.47
#  24   -0.06   -1.00    0.16   -0.06   -0.10    0.00    0.00      -1.06   -0.18   -0.33
#  25   -1.10   -0.75    0.12    0.23    0.13    0.00    0.00      -1.37    0.94    0.52
#  26    0.52   -0.65    0.23   -0.15    0.00    0.00    0.00      -0.05   -0.71    0.02
#  27   -2.05   -0.50    0.03    1.15    0.07    0.00    0.00      -1.30    5.48    0.34
#  28    0.90   -0.84    0.08   -0.12   -0.09    0.00    0.00      -0.07   -0.45   -0.32
#  29   -2.51   -1.18    0.34    1.07   -0.12    0.00    0.00      -2.41    3.51   -0.41
#  30   15.24   -1.39    0.33   -4.55   -0.05    0.00    0.00       9.58  -13.36   -0.16
#  31  -22.70   -3.98    3.38    9.12   -0.13    0.00    0.00     -14.32   20.69   -0.29
#  32  -22.76   -1.00    0.31    7.56   -0.17    0.00    0.00     -16.06   25.03   -0.56
#  33    0.70   -0.04    0.00    0.15   -0.01    0.00    0.00       0.81    3.53   -0.28
#  34    1.98   -0.09    0.02    0.37   -0.03    0.00    0.00       2.25    4.06   -0.28
#  35    0.77   -0.41    0.53    0.30   -0.05    0.00    0.00       1.14    1.59   -0.28
#  36    0.36   -0.22    0.09    0.21   -0.04    0.00    0.00       0.40    1.33   -0.28
#  37    0.60   -0.33    0.08    0.28   -0.08    0.00    0.00       0.56    1.03   -0.28
#  38    0.58   -0.07    0.00    0.12   -0.02    0.00    0.00       0.61    1.72   -0.28
#  39    4.80   -0.02    0.00   -0.32    0.13    0.00    0.00       4.59   -1.42    0.57
#  40    3.39   -0.15    0.01   -0.07   -0.04    0.00    0.00       3.14   -0.47   -0.25
#  41    0.84   -0.50    0.19   -0.08   -0.09    0.00    0.00       0.35   -0.25   -0.28
#  42    1.53   -0.19    0.01   -0.03   -0.06    0.00    0.00       1.26   -0.14   -0.28
#  43    1.25   -1.46    4.43   -0.07   -0.16    0.00    0.00       3.98   -0.12   -0.28
#  44    2.18   -1.18    1.32   -0.23   -0.22    0.00    0.00       1.87   -0.29   -0.28
#  45    2.60   -1.45    2.03   -0.82   -0.22    0.00    0.00       2.14   -1.05   -0.28
#  46    2.88   -1.20    1.26   -0.90   -0.18    0.00    0.00       1.87   -1.38   -0.27
#  47    1.65   -0.44    0.16   -0.19   -0.07    0.00    0.00       1.11   -0.57   -0.22
#  48    3.51   -0.74    0.41   -0.36   -0.11    0.00    0.00       2.71   -0.69   -0.20
#  49    2.00   -0.39    0.10   -0.29   -0.09    0.00    0.00       1.34   -0.91   -0.27
#  50    1.47   -0.39    0.12   -0.10   -0.10    0.00    0.00       1.01   -0.29   -0.28
#  51    0.82   -0.28    0.10    0.17   -0.07    0.00    0.00       0.75    0.73   -0.28
#  52    0.19   -0.07    0.00   -0.01   -0.02    0.00    0.00       0.10   -0.15   -0.28
#  53    0.02   -0.82    2.19    0.01   -0.07    0.00    0.00       1.34    0.06   -0.28

@<TRIPOS>MOLECULE
       AVX17558_0       100
   53    56     0     0     0



@<TRIPOS>ATOM
      1 N1         16.8636   -17.3033    12.6693 N.4        1          -0.6365
      2 H1         17.3744   -17.4319    11.8086 H          1           0.4351
      3 H2         17.3732   -16.6747    13.2720 H          1           0.4363
      4 H3         15.9557   -16.9123    12.4663 H          1           0.4368
      5 C1         16.6997   -18.5999    13.3399 C.3        1          -0.0108
      6 C2         18.0763   -19.1925    13.6476 C.3        1          -0.1345
      7 C3         17.9056   -20.5430    14.3462 C.3        1          -0.1442
      8 C4         17.1445   -21.4816    13.4458 C.2        1           0.5178
      9 O1         16.0868   -21.9486    13.8118 O.2        1          -0.5471
     10 N2         17.6393   -21.8022    12.2338 N.am       1          -0.7039
     11 C5         16.8993   -22.7147    11.3585 C.3        1           0.1454
     12 C6         16.7873   -24.1159    11.9957 C.3        1          -0.0861
     13 C7         16.8726   -25.0860    10.8367 C.ar       1          -0.1082
     14 C8         16.5220   -26.4236    10.7583 C.ar       1          -0.1114
     15 C9         16.6914   -27.1183     9.5770 C.ar       1          -0.1255
     16 C10        17.2125   -26.4773     8.4683 C.ar       1          -0.1206
     17 C11        17.5625   -25.1437     8.5444 C.ar       1          -0.0879
     18 C12        17.3934   -24.4451     9.7285 C.ar       1          -0.0663
     19 C13        17.6940   -23.0007    10.0667 C.3        1          -0.0339
     20 C14        17.2214   -22.0819     8.9382 C.3        1          -0.0677
     21 C15        17.8966   -20.7407     9.0664 C.ar       1          -0.0295
     22 C16        19.2697   -20.6524     9.0079 C.ar       1          -0.1289
     23 C17        19.8984   -19.4233     9.1244 C.ar       1          -0.1047
     24 C18        19.1541   -18.2692     9.3011 C.ar       1          -0.0083
     25 O2         19.5285   -16.9635     9.4397 O.3        1          -0.3207
     26 C19        18.3400   -16.1940     9.1771 C.3        1           0.2058
     27 O3         17.2689   -17.0856     9.5389 O.3        1          -0.2748
     28 C20        17.7646   -18.3412     9.3624 C.ar       1           0.0752
     29 C21        17.1284   -19.5838     9.2392 C.ar       1          -0.1199
     30 C22        15.6605   -19.6722     9.2966 C.2        1           0.5175
     31 O4         15.0017   -19.5844     8.2694 O.co2      1          -0.6672
     32 O5         15.0990   -19.8337    10.3715 O.co2      1          -0.6698
     33 H4         16.1479   -18.4609    14.2696 H          1           0.1353
     34 H5         16.1490   -19.2788    12.6887 H          1           0.1345
     35 H6         18.6281   -19.3314    12.7179 H          1           0.0949
     36 H7         18.6269   -18.5136    14.2989 H          1           0.0967
     37 H8         18.8863   -20.9652    14.5654 H          1           0.1039
     38 H9         17.3538   -20.4039    15.2758 H          1           0.1025
     39 H10        18.4853   -21.4288    11.9411 H          1           0.4047
     40 H11        15.9136   -22.3115    11.1259 H          1           0.1037
     41 H12        17.6110   -24.2827    12.6899 H          1           0.0781
     42 H13        15.8317   -24.2229    12.5088 H          1           0.0741
     43 H14        16.1154   -26.9250    11.6241 H          1           0.1138
     44 H15        16.4174   -28.1614     9.5192 H          1           0.1195
     45 H16        17.3458   -27.0193     7.5436 H          1           0.1221
     46 H17        17.9695   -24.6436     7.6780 H          1           0.1314
     47 H18        18.7614   -22.8673    10.2420 H          1           0.1086
     48 H19        17.4767   -22.5268     7.9765 H          1           0.1223
     49 H20        16.1410   -21.9524     9.0034 H          1           0.0530
     50 H21        19.8598   -21.5463     8.8708 H          1           0.1254
     51 H22        20.9757   -19.3650     9.0774 H          1           0.1195
     52 H23        18.3189   -15.2981     9.7977 H          1           0.1239
     53 H24        18.2794   -15.9312     8.1210 H          1           0.0704
@<TRIPOS>BOND
     1    1    2 1
     2    1    3 1
     3    1    4 1
     4    1    5 1
     5    5    6 1
     6    5   33 1
     7    5   34 1
     8    6    7 1
     9    6   35 1
    10    6   36 1
    11    7    8 1
    12    7   37 1
    13    7   38 1
    14    8    9 2
    15    8   10 am
    16   10   11 1
    17   10   39 1
    18   11   19 1
    19   11   12 1
    20   11   40 1
    21   12   13 1
    22   12   41 1
    23   12   42 1
    24   13   18 ar
    25   13   14 ar
    26   14   15 ar
    27   14   43 1
    28   15   16 ar
    29   15   44 1
    30   16   17 ar
    31   16   45 1
    32   17   18 ar
    33   17   46 1
    34   18   19 1
    35   19   20 1
    36   19   47 1
    37   20   21 1
    38   20   48 1
    39   20   49 1
    40   21   29 ar
    41   21   22 ar
    42   22   23 ar
    43   22   50 1
    44   23   24 ar
    45   23   51 1
    46   24   28 ar
    47   24   25 1
    48   25   26 1
    49   26   27 1
    50   26   52 1
    51   26   53 1
    52   27   28 1
    53   28   29 ar
    54   29   30 1
    55   30   31 1
    56   30   32 2
