AVX101124_1, 3
##########                 Name:          AVX101124_0
##########          Protonation:                  100
##########               SMILES:   c1ccc\2c(c1)C[C@@H](/C2=C\c3ccc4c(c3C(=O)[O-])OCO4)NC(=O)CCCCC[NH3+]
##########            Long Name:   zaniumylhexanoylamino)indan-1-ylidene]methyl]-1,3-benzodioxole-4-carboxylate
##########          FlexRecCode: 1
##########               Number:                  690
##########   Ligand Source File: /raid1/people/rgc/Examples/sampl4/screening/ligands/build_1//sampl4-hivint-00000
##########           GlobalRank: 76
##########                 Rank:                    1
##########               Setnum:                    7
##########             Matchnum:                 4113
##########                Cloud:                    1
##########        Electrostatic:           -30.927052
##########        Van der Waals:           -22.122139
##########  Ligand Polar Desolv:            15.595654
########## Ligand Apolar Desolv:            -2.446096
##########      Internal Energy:             0.000000
##########      Receptor Energy: 0.0
########## Receptor Desolvation:             0.000000
########## Receptor Hydrophobic:             0.000000
##########         Total Energy: -39.9
##########        Ligand Charge:             0.000000
##########            Arbitrary:    +999.9990
##########     heavy atom count:   31
##########           pose count:    1
##########        Ligand Energy:             0.000000
# num electro vdwattr vdwrepu polsolv apolsol rdesolv rhydroe totalscore fullpol fullapo
#   1   -1.14   -0.12    0.00   -0.94    0.04    0.00    0.00      -2.16  -19.41    0.86
#   2    1.02    0.00    0.00    0.52    0.02    0.00    0.00       1.56   15.93    0.60
#   3    0.74    0.00    0.00    0.44    0.02    0.00    0.00       1.20   14.85    0.58
#   4    0.47    0.00    0.00    0.28    0.01    0.00    0.00       0.75   15.20    0.58
#   5   -0.03   -0.08    0.00    0.04   -0.02    0.00    0.00      -0.10    0.70   -0.49
#   6   -0.24   -0.08    0.00   -0.14   -0.01    0.00    0.00      -0.46   -2.85   -0.24
#   7   -0.19   -0.11    0.00   -0.10   -0.02    0.00    0.00      -0.41   -1.42   -0.22
#   8   -0.42   -0.25    0.03   -0.06   -0.02    0.00    0.00      -0.73   -0.47   -0.19
#   9   -0.52   -0.26    0.03   -0.01   -0.03    0.00    0.00      -0.80   -0.09   -0.24
#  10    3.22   -0.75    0.12   -0.41   -0.14    0.00    0.00       2.03   -1.90   -0.65
#  11   -3.02   -2.20    1.07    0.95    0.12    0.00    0.00      -3.07    2.99    0.38
#  12   -6.96   -0.48    0.02    0.87    0.37    0.00    0.00      -6.18    4.47    1.88
#  13    2.02   -0.59    0.06   -0.35   -0.06    0.00    0.00       1.09   -1.27   -0.20
#  14   -0.51   -1.13    0.61    0.07   -0.08    0.00    0.00      -1.03    0.25   -0.28
#  15   -0.57   -0.82    0.08    0.12   -0.11    0.00    0.00      -1.30    0.49   -0.44
#  16   -0.07   -0.84    0.11    0.07   -0.10    0.00    0.00      -0.82    0.33   -0.47
#  17   -0.02   -1.17    0.38    0.07   -0.11    0.00    0.00      -0.84    0.32   -0.47
#  18   -1.21   -1.21    0.30    0.27   -0.14    0.00    0.00      -1.98    0.93   -0.47
#  19   -1.92   -1.00    0.16    0.48   -0.14    0.00    0.00      -2.43    1.57   -0.47
#  20   -0.56   -0.75    0.07    0.32   -0.11    0.00    0.00      -1.03    1.23   -0.43
#  21   -2.98   -0.71    0.05    0.26   -0.10    0.00    0.00      -3.48    0.98   -0.38
#  22    0.26   -0.82    0.08    0.42   -0.11    0.00    0.00      -0.17    1.43   -0.37
#  23   -0.66   -0.81    0.04   -0.03   -0.12    0.00    0.00      -1.57   -0.09   -0.37
#  24   -1.77   -1.79    0.51    0.35   -0.16    0.00    0.00      -2.85    0.88   -0.39
#  25   -1.19   -2.16    0.74    0.12   -0.20    0.00    0.00      -2.70    0.27   -0.47
#  26    0.11   -1.35    0.27   -0.10   -0.13    0.00    0.00      -1.20   -0.25   -0.33
#  27   -3.56   -1.31    0.32    0.90    0.22    0.00    0.00      -3.43    2.21    0.53
#  28    2.05   -0.94    0.17   -0.54    0.01    0.00    0.00       0.74   -1.46    0.02
#  29   -4.71   -1.25    0.34    2.10    0.12    0.00    0.00      -3.41    6.07    0.34
#  30    1.44   -1.01    0.15   -0.23   -0.10    0.00    0.00       0.25   -0.72   -0.32
#  31   -2.74   -0.76    0.05    1.21   -0.12    0.00    0.00      -2.35    4.25   -0.41
#  32   17.88   -1.01    0.23   -4.63   -0.05    0.00    0.00      12.41  -14.72   -0.17
#  33  -29.20   -1.48    0.23    9.61   -0.14    0.00    0.00     -20.98   23.03   -0.33
#  34  -20.61   -1.20    1.11    5.80   -0.12    0.00    0.00     -15.02   25.65   -0.55
#  35    0.29   -0.02    0.00    0.09   -0.01    0.00    0.00       0.35    3.65   -0.28
#  36    0.86   -0.03    0.00    0.10   -0.01    0.00    0.00       0.91    3.10   -0.28
#  37    0.10   -0.03    0.00    0.05   -0.01    0.00    0.00       0.11    1.55   -0.28
#  38    0.08   -0.01    0.00    0.03    0.00    0.00    0.00       0.09    2.04   -0.28
#  39    0.06   -0.04    0.00    0.04   -0.01    0.00    0.00       0.05    1.05   -0.28
#  40    0.11   -0.02    0.00    0.01    0.00    0.00    0.00       0.09    0.52   -0.28
#  41    0.52   -0.05    0.00    0.00   -0.01    0.00    0.00       0.47    0.09   -0.28
#  42    0.28   -0.19    0.07    0.05   -0.04    0.00    0.00       0.17    0.33   -0.28
#  43    0.15   -0.11    0.02    0.04   -0.03    0.00    0.00       0.07    0.36   -0.28
#  44    0.28   -0.03    0.00    0.00   -0.01    0.00    0.00       0.24   -0.13   -0.28
#  45    4.48   -0.01    0.00   -0.24    0.04    0.00    0.00       4.28   -3.22    0.58
#  46    0.92   -0.29    0.04   -0.18   -0.05    0.00    0.00       0.44   -0.65   -0.18
#  47    0.42   -1.12    1.80   -0.09   -0.10    0.00    0.00       0.91   -0.25   -0.28
#  48    0.33   -0.32    0.27   -0.05   -0.05    0.00    0.00       0.17   -0.29   -0.27
#  49   -0.07   -0.12    0.01    0.01   -0.03    0.00    0.00      -0.21    0.06   -0.28
#  50   -0.34   -0.23    0.08    0.00   -0.04    0.00    0.00      -0.54    0.00   -0.28
#  51    2.10   -0.42    0.49   -0.20   -0.08    0.00    0.00       1.89   -0.75   -0.28
#  52    4.06   -0.26    0.06   -0.35   -0.08    0.00    0.00       3.43   -1.31   -0.28
#  53    6.15   -0.22    0.04   -0.44   -0.05    0.00    0.00       5.48   -1.96   -0.21
#  54    1.64   -0.77    0.74   -0.41   -0.07    0.00    0.00       1.13   -1.15   -0.19
#  55    0.79   -0.78    0.55   -0.23   -0.12    0.00    0.00       0.21   -0.53   -0.28
#  56    0.88   -0.18    0.02   -0.10   -0.05    0.00    0.00       0.57   -0.53   -0.28
#  57    0.55   -0.72    0.77   -0.26   -0.11    0.00    0.00       0.24   -0.65   -0.28

@<TRIPOS>MOLECULE
      AVX101124_0       100
   57    60     0     0     0



@<TRIPOS>ATOM
      1 N1         16.0268   -15.1447    11.0952 N.4        1          -0.6382
      2 H1         15.2856   -15.4600    10.4875 H          1           0.4365
      3 H2         16.9018   -15.1574    10.5929 H          1           0.4353
      4 H3         15.8306   -14.2048    11.4053 H          1           0.4344
      5 C1         16.1177   -16.0357    12.2595 C.3        1          -0.0106
      6 C2         17.2417   -15.5576    13.1811 C.3        1          -0.1512
      7 C3         17.3364   -16.4855    14.3938 C.3        1          -0.1209
      8 C4         17.6339   -17.9107    13.9236 C.3        1          -0.1010
      9 C5         17.7286   -18.8387    15.1363 C.3        1          -0.1464
     10 C6         18.0216   -20.2424    14.6731 C.2        1           0.5159
     11 O1         19.1699   -20.6145    14.5539 O.2        1          -0.5487
     12 N2         17.0078   -21.0845    14.3913 N.am       1          -0.7097
     13 C7         17.2926   -22.4492    13.9410 C.3        1           0.1865
     14 C8         17.3108   -23.4220    15.1291 C.3        1          -0.0834
     15 C9         15.9214   -24.0087    15.1819 C.ar       1          -0.0982
     16 C10        15.2873   -24.7523    16.1585 C.ar       1          -0.1095
     17 C11        13.9758   -25.1557    15.9853 C.ar       1          -0.1241
     18 C12        13.2868   -24.8184    14.8334 C.ar       1          -0.1187
     19 C13        13.9102   -24.0893    13.8434 C.ar       1          -0.0984
     20 C14        15.2417   -23.6905    14.0052 C.ar       1          -0.0371
     21 C15        16.1595   -22.9817    13.0918 C.2        1          -0.1547
     22 C16        16.0157   -22.8365    11.7622 C.2        1           0.0091
     23 C17        17.0775   -22.1950    10.9740 C.ar       1          -0.0276
     24 C18        18.3588   -22.7451    10.9444 C.ar       1          -0.1137
     25 C19        19.3568   -22.1438    10.2041 C.ar       1          -0.1014
     26 C20        19.1007   -20.9881     9.4822 C.ar       1           0.0074
     27 O2         19.8926   -20.2131     8.6878 O.3        1          -0.3189
     28 C21        19.2403   -18.9389     8.5820 C.3        1           0.2038
     29 O3         17.8594   -19.3083     8.7126 O.3        1          -0.2760
     30 C22        17.8284   -20.4191     9.4957 C.ar       1           0.0726
     31 C23        16.8043   -21.0195    10.2364 C.ar       1          -0.1049
     32 C24        15.4596   -20.4311    10.2526 C.2        1           0.5194
     33 O4         14.6312   -20.7748     9.4197 O.co2      1          -0.6732
     34 O5         15.1668   -19.5967    11.0989 O.co2      1          -0.6662
     35 H4         15.1725   -16.0220    12.8022 H          1           0.1334
     36 H5         16.3296   -17.0510    11.9246 H          1           0.1343
     37 H6         18.1870   -15.5713    12.6384 H          1           0.0888
     38 H7         17.0297   -14.5423    13.5161 H          1           0.0877
     39 H8         18.1371   -16.1450    15.0504 H          1           0.0746
     40 H9         16.3911   -16.4719    14.9364 H          1           0.0765
     41 H10        16.8331   -18.2513    13.2671 H          1           0.0744
     42 H11        18.5790   -17.9244    13.3808 H          1           0.0724
     43 H12        18.5294   -18.4981    15.7927 H          1           0.0928
     44 H13        16.7834   -18.8250    15.6790 H          1           0.0960
     45 H14        16.0895   -20.7870    14.4864 H          1           0.4053
     46 H15        18.2352   -22.4860    13.3951 H          1           0.1035
     47 H16        18.0471   -24.2083    14.9630 H          1           0.0828
     48 H17        17.5308   -22.8868    16.0529 H          1           0.0790
     49 H18        15.8178   -25.0200    17.0602 H          1           0.1161
     50 H19        13.4869   -25.7373    16.7529 H          1           0.1205
     51 H20        12.2593   -25.1271    14.7096 H          1           0.1230
     52 H21        13.3723   -23.8270    12.9444 H          1           0.1266
     53 H22        15.1202   -23.1915    11.2740 H          1           0.1614
     54 H23        18.5710   -23.6446    11.5032 H          1           0.1335
     55 H24        20.3459   -22.5771    10.1874 H          1           0.1266
     56 H25        19.5451   -18.2760     9.3918 H          1           0.1245
     57 H26        19.4319   -18.4817     7.6113 H          1           0.0780
@<TRIPOS>BOND
     1    1    2 1
     2    1    3 1
     3    1    4 1
     4    1    5 1
     5    5    6 1
     6    5   35 1
     7    5   36 1
     8    6    7 1
     9    6   37 1
    10    6   38 1
    11    7    8 1
    12    7   39 1
    13    7   40 1
    14    8    9 1
    15    8   41 1
    16    8   42 1
    17    9   10 1
    18    9   43 1
    19    9   44 1
    20   10   11 2
    21   10   12 am
    22   12   13 1
    23   12   45 1
    24   13   21 1
    25   13   14 1
    26   13   46 1
    27   14   15 1
    28   14   47 1
    29   14   48 1
    30   15   20 ar
    31   15   16 ar
    32   16   17 ar
    33   16   49 1
    34   17   18 ar
    35   17   50 1
    36   18   19 ar
    37   18   51 1
    38   19   20 ar
    39   19   52 1
    40   20   21 1
    41   21   22 2
    42   22   23 1
    43   22   53 1
    44   23   31 ar
    45   23   24 ar
    46   24   25 ar
    47   24   54 1
    48   25   26 ar
    49   25   55 1
    50   26   30 ar
    51   26   27 1
    52   27   28 1
    53   28   29 1
    54   28   56 1
    55   28   57 1
    56   29   30 1
    57   30   31 ar
    58   31   32 1
    59   32   33 1
    60   32   34 2
