AVX101122_1, 3
##########                 Name:          AVX101122_0
##########          Protonation:                   18
##########               SMILES:   CN(Cc1ccccc1C(=O)NCc2ccc(cc2)OC)Cc3cccc(c3C(=O)[O-])OC
##########            Long Name:   [(4-methoxyphenyl)methylcarbamoyl]phenyl]methyl-methyl-amino]methyl]benzoate
##########          FlexRecCode: 1
##########               Number:                  435
##########   Ligand Source File: /raid1/people/rgc/Examples/sampl4/screening/ligands/build_1//sampl4-hivint-00000
##########           GlobalRank: 51
##########                 Rank:                    1
##########               Setnum:                  175
##########             Matchnum:                  836
##########                Cloud:                    1
##########        Electrostatic:           -45.172394
##########        Van der Waals:           -19.154715
##########  Ligand Polar Desolv:            24.908978
########## Ligand Apolar Desolv:            -2.523889
##########      Internal Energy:             0.000000
##########      Receptor Energy: 0.0
########## Receptor Desolvation:             0.000000
########## Receptor Hydrophobic:             0.000000
##########         Total Energy: -41.94
##########        Ligand Charge:            -1.000000
##########            Arbitrary:    +999.9990
##########     heavy atom count:   33
##########           pose count:    1
##########        Ligand Energy:             0.000000
# num electro vdwattr vdwrepu polsolv apolsol rdesolv rhydroe totalscore fullpol fullapo
#   1    0.02   -0.94    0.62    0.00    0.01    0.00    0.00      -0.28    0.01    0.03
#   2   -0.22   -1.27    0.37    0.70    0.28    0.00    0.00      -0.14    2.36    0.93
#   3    0.09   -0.77    0.06   -0.22   -0.08    0.00    0.00      -0.92   -0.81   -0.31
#   4   -0.13   -0.93    0.11    0.29   -0.11    0.00    0.00      -0.77    1.05   -0.42
#   5   -0.04   -0.65    0.09    0.06   -0.09    0.00    0.00      -0.63    0.31   -0.45
#   6   -0.11   -0.48    0.06    0.18   -0.06    0.00    0.00      -0.41    1.15   -0.37
#   7    0.17   -0.23    0.02   -0.21   -0.05    0.00    0.00      -0.30   -1.73   -0.44
#   8   -1.18   -0.24    0.01    0.69    0.22    0.00    0.00      -0.50    7.32    2.32
#   9    0.48   -0.15    0.00   -0.52   -0.04    0.00    0.00      -0.22   -9.06   -0.65
#  10   -0.40   -0.07    0.00    0.39    0.01    0.00    0.00      -0.07   12.82    0.32
#  11   -0.14   -0.28    0.01    0.29   -0.04    0.00    0.00      -0.15    2.80   -0.41
#  12   -0.08   -0.29    0.02    0.07   -0.05    0.00    0.00      -0.33    0.62   -0.44
#  13   -0.12   -0.60    0.11    0.16   -0.07    0.00    0.00      -0.51    1.07   -0.47
#  14   -0.09   -1.80    2.44    0.29   -0.09    0.00    0.00       0.75    1.49   -0.47
#  15   -0.11   -1.47    1.25    0.64   -0.08    0.00    0.00       0.23    3.00   -0.38
#  16    0.00   -0.50    0.06    0.20   -0.06    0.00    0.00      -0.30    1.31   -0.39
#  17    0.32   -0.23    0.01   -0.49   -0.04    0.00    0.00      -0.43   -3.48   -0.28
#  18   -4.08   -0.68    0.04    3.12    0.45    0.00    0.00      -1.14   13.62    1.96
#  19    0.19   -1.84    0.79   -0.26   -0.17    0.00    0.00      -1.29   -0.70   -0.44
#  20    1.63   -0.34    0.01   -0.64   -0.07    0.00    0.00       0.59   -3.04   -0.31
#  21   -0.25   -0.65    0.04    0.10   -0.08    0.00    0.00      -0.83    0.44   -0.32
#  22   -1.99   -0.74    0.09    0.70   -0.11    0.00    0.00      -2.05    2.68   -0.41
#  23   -1.04   -1.29    0.64    0.08   -0.15    0.00    0.00      -1.76    0.26   -0.47
#  24   -3.56   -1.29    0.22    1.35   -0.17    0.00    0.00      -3.45    3.41   -0.42
#  25    3.55   -1.15    0.16   -1.16   -0.12    0.00    0.00       1.27   -2.98   -0.31
#  26   -7.69   -1.43    0.21    4.46    0.16    0.00    0.00      -4.29    9.85    0.36
#  27    0.59   -1.07    0.21   -0.02    0.01    0.00    0.00      -0.27   -0.05    0.03
#  28   -3.92   -0.94    0.14    2.37   -0.12    0.00    0.00      -2.47    8.07   -0.41
#  29   20.46   -1.30    0.24   -7.25   -0.06    0.00    0.00      12.09  -19.08   -0.17
#  30  -31.04   -2.22    3.82    9.62   -0.10    0.00    0.00     -19.92   28.80   -0.31
#  31  -30.33   -2.30    0.67   15.60   -0.28    0.00    0.00     -16.64   33.25   -0.59
#  32   -0.07   -0.52    0.04    0.10   -0.08    0.00    0.00      -0.53    0.53   -0.45
#  33   -0.14   -0.56    0.04    0.29   -0.10    0.00    0.00      -0.47    1.37   -0.46
#  34    0.05   -0.38    0.29   -0.02   -0.06    0.00    0.00      -0.12   -0.10   -0.26
#  35    0.05   -0.36    0.34   -0.02   -0.05    0.00    0.00      -0.04   -0.10   -0.26
#  36    0.10   -0.10    0.01   -0.01   -0.03    0.00    0.00      -0.03   -0.08   -0.28
#  37    0.07   -0.33    0.11   -0.12   -0.06    0.00    0.00      -0.34   -0.46   -0.22
#  38    0.08   -0.12    0.01   -0.09   -0.04    0.00    0.00      -0.15   -0.64   -0.28
#  39    0.17   -0.13    0.03   -0.08   -0.04    0.00    0.00      -0.05   -0.64   -0.28
#  40    0.06   -0.04    0.00   -0.03   -0.01    0.00    0.00      -0.02   -0.77   -0.28
#  41    1.07   -0.01    0.00   -0.21    0.03    0.00    0.00       0.88   -3.02    0.43
#  42    0.09   -0.03    0.00   -0.03   -0.01    0.00    0.00       0.02   -1.20   -0.22
#  43    0.09   -0.07    0.00   -0.10   -0.02    0.00    0.00      -0.10   -1.19   -0.28
#  44    0.10   -0.43    0.58   -0.37   -0.05    0.00    0.00      -0.18   -1.96   -0.28
#  45    0.23   -0.33    0.17   -0.47   -0.05    0.00    0.00      -0.44   -2.07   -0.21
#  46    0.27   -0.03    0.00   -0.01   -0.01    0.00    0.00       0.22   -0.35   -0.25
#  47    0.13   -0.07    0.00   -0.07   -0.01    0.00    0.00      -0.02   -1.34   -0.22
#  48    0.98   -1.03    1.20   -0.56   -0.09    0.00    0.00       0.49   -1.38   -0.22
#  49    0.67   -0.64    0.30   -0.40   -0.08    0.00    0.00      -0.15   -1.10   -0.23
#  50    0.07   -0.96    1.00   -0.31   -0.10    0.00    0.00      -0.31   -0.84   -0.28
#  51    1.39   -0.06    0.00   -0.05   -0.01    0.00    0.00       1.27   -0.84   -0.20
#  52    0.33   -0.15    0.01   -0.23   -0.05    0.00    0.00      -0.09   -1.36   -0.27
#  53    0.78   -0.11    0.01   -0.26   -0.03    0.00    0.00       0.38   -2.38   -0.28
#  54    0.88   -0.36    0.34   -0.42   -0.06    0.00    0.00       0.38   -1.85   -0.28
#  55    1.38   -0.35    0.07   -0.80   -0.07    0.00    0.00       0.22   -2.40   -0.22
#  56    1.29   -0.48    0.19   -0.45   -0.09    0.00    0.00       0.46   -1.23   -0.26
#  57    0.75   -0.47    0.21   -0.38   -0.08    0.00    0.00       0.03   -1.23   -0.26
#  58    2.59   -0.17    0.01   -0.30   -0.05    0.00    0.00       2.09   -1.69   -0.28
#  59    0.24   -0.12    0.01   -0.14   -0.04    0.00    0.00      -0.04   -1.05   -0.28
#  60    0.15   -0.14    0.03   -0.13   -0.04    0.00    0.00      -0.13   -1.00   -0.28

@<TRIPOS>MOLECULE
      AVX101122_0        18
   60    62     0     0     0



@<TRIPOS>ATOM
      1 C1         25.1834   -14.4010     9.8345 C.3        1           0.0267
      2 O1         24.6039   -14.1284    11.1121 O.3        1          -0.3178
      3 C2         23.3110   -14.5041    11.2960 C.ar       1           0.1320
      4 C3         22.6838   -14.2647    12.5101 C.ar       1          -0.2111
      5 C4         21.3692   -14.6473    12.6943 C.ar       1          -0.0597
      6 C5         20.6787   -15.2686    11.6701 C.ar       1          -0.1436
      7 C6         19.2449   -15.6852    11.8740 C.3        1           0.1665
      8 N1         18.4534   -15.3006    10.7027 N.am       1          -0.7287
      9 C7         17.8596   -14.0914    10.6582 C.2        1           0.5610
     10 O2         17.9808   -13.3201    11.5897 O.2        1          -0.5284
     11 C8         17.0607   -13.7034     9.4762 C.ar       1          -0.1504
     12 C9         17.4217   -12.5855     8.7223 C.ar       1          -0.0929
     13 C10        16.6724   -12.2292     7.6204 C.ar       1          -0.1412
     14 C11        15.5645   -12.9769     7.2621 C.ar       1          -0.0965
     15 C12        15.2012   -14.0859     8.0050 C.ar       1          -0.0951
     16 C13        15.9456   -14.4566     9.1060 C.ar       1           0.0015
     17 C14        15.5519   -15.6684     9.9107 C.3        1           0.1071
     18 N2         16.2265   -16.8559     9.3696 N.3        1          -0.5103
     19 C15        15.8528   -17.0802     7.9667 C.3        1           0.0185
     20 C16        15.9399   -18.0424    10.1869 C.3        1           0.1072
     21 C17        16.9876   -19.0946     9.9297 C.ar       1          -0.0138
     22 C18        18.3201   -18.7472     9.8933 C.ar       1          -0.1742
     23 C19        19.2880   -19.7102     9.6578 C.ar       1          -0.0926
     24 C20        18.9289   -21.0282     9.4570 C.ar       1          -0.2347
     25 C21        17.5925   -21.3975     9.4896 C.ar       1           0.1503
     26 O3         17.2382   -22.6915     9.2922 O.3        1          -0.2675
     27 C22        17.1647   -23.5278    10.4486 C.3        1           0.0229
     28 C23        16.6090   -20.4266     9.7335 C.ar       1          -0.1469
     29 C24        15.1879   -20.8066     9.7770 C.2        1           0.5249
     30 O4         14.6763   -21.1405    10.8369 O.co2      1          -0.6656
     31 O5         14.5183   -20.7886     8.7533 O.co2      1          -0.6800
     32 C25        21.3014   -15.5079    10.4591 C.ar       1          -0.0587
     33 C26        22.6142   -15.1226    10.2680 C.ar       1          -0.1529
     34 H1         26.2159   -14.0515     9.8218 H          1           0.0561
     35 H2         25.1609   -15.4745     9.6470 H          1           0.0559
     36 H3         24.6155   -13.8850     9.0606 H          1           0.1001
     37 H4         23.2229   -13.7801    13.3106 H          1           0.1289
     38 H5         20.8804   -14.4611    13.6393 H          1           0.1274
     39 H6         19.1959   -16.7660    12.0067 H          1           0.0774
     40 H7         18.8457   -15.1918    12.7602 H          1           0.0747
     41 H8         18.3564   -15.9162     9.9594 H          1           0.3990
     42 H9         18.2857   -12.0006     9.0013 H          1           0.1172
     43 H10        16.9506   -11.3644     7.0363 H          1           0.1206
     44 H11        14.9808   -12.6932     6.3990 H          1           0.1222
     45 H12        14.3353   -14.6651     7.7202 H          1           0.1480
     46 H13        15.8463   -15.5256    10.9505 H          1           0.0996
     47 H14        14.4722   -15.8068     9.8546 H          1           0.0580
     48 H15        16.3663   -17.9651     7.5911 H          1           0.0589
     49 H16        14.7752   -17.2284     7.8970 H          1           0.0655
     50 H17        16.1396   -16.2135     7.3713 H          1           0.0151
     51 H18        15.9515   -17.7683    11.2418 H          1           0.1218
     52 H19        14.9578   -18.4358     9.9244 H          1           0.0147
     53 H20        18.6117   -17.7190    10.0487 H          1           0.1093
     54 H21        20.3302   -19.4281     9.6307 H          1           0.1109
     55 H22        19.6897   -21.7726     9.2741 H          1           0.1160
     56 H23        16.8716   -24.5345    10.1509 H          1           0.0440
     57 H24        18.1396   -23.5620    10.9348 H          1           0.0441
     58 H25        16.4267   -23.1246    11.1422 H          1           0.0919
     59 H26        20.7598   -15.9930     9.6604 H          1           0.1341
     60 H27        23.0990   -15.3065     9.3206 H          1           0.1328
@<TRIPOS>BOND
     1    1    2 1
     2    1   34 1
     3    1   35 1
     4    1   36 1
     5    2    3 1
     6    3   33 ar
     7    3    4 ar
     8    4    5 ar
     9    4   37 1
    10    5    6 ar
    11    5   38 1
    12    6    7 1
    13    6   32 ar
    14    7    8 1
    15    7   39 1
    16    7   40 1
    17    8    9 am
    18    8   41 1
    19    9   10 2
    20    9   11 1
    21   11   16 ar
    22   11   12 ar
    23   12   13 ar
    24   12   42 1
    25   13   14 ar
    26   13   43 1
    27   14   15 ar
    28   14   44 1
    29   15   16 ar
    30   15   45 1
    31   16   17 1
    32   17   18 1
    33   17   46 1
    34   17   47 1
    35   18   19 1
    36   18   20 1
    37   19   48 1
    38   19   49 1
    39   19   50 1
    40   20   21 1
    41   20   51 1
    42   20   52 1
    43   21   28 ar
    44   21   22 ar
    45   22   23 ar
    46   22   53 1
    47   23   24 ar
    48   23   54 1
    49   24   25 ar
    50   24   55 1
    51   25   26 1
    52   25   28 ar
    53   26   27 1
    54   27   56 1
    55   27   57 1
    56   27   58 1
    57   28   29 1
    58   29   30 1
    59   29   31 2
    60   32   33 ar
    61   32   59 1
    62   33   60 1
