AVX17542_0, 3
##########                 Name:           AVX17542_0
##########          Protonation:                  100
##########               SMILES:   CC(C)C[C@@H](Cc1ccc2c(c1C(=O)[O-])OCO2)CNC(=O)CCCC[NH3+]
##########            Long Name:   niumylpentanoylamino)methyl]-4-methyl-pentyl]-1,3-benzodioxole-4-carboxylate
##########          FlexRecCode: 1
##########               Number:                  529
##########   Ligand Source File: /raid1/people/rgc/Examples/sampl4/screening/ligands/build_1//sampl4-hivint-00000
##########           GlobalRank: 125
##########                 Rank:                    1
##########               Setnum:                    3
##########             Matchnum:                19525
##########                Cloud:                    1
##########        Electrostatic:           -22.442411
##########        Van der Waals:           -14.898053
##########  Ligand Polar Desolv:            13.938822
########## Ligand Apolar Desolv:            -1.757793
##########      Internal Energy:             0.000000
##########      Receptor Energy: 0.0
########## Receptor Desolvation:             0.000000
########## Receptor Hydrophobic:             0.000000
##########         Total Energy: -25.16
##########        Ligand Charge:             0.000000
##########            Arbitrary:    +999.9990
##########     heavy atom count:   27
##########           pose count:    1
##########        Ligand Energy:             0.000000
# num electro vdwattr vdwrepu polsolv apolsol rdesolv rhydroe totalscore fullpol fullapo
#   1   -0.23   -0.87    0.36   -0.03   -0.04    0.00    0.00      -0.81   -0.12   -0.18
#   2   -0.22   -0.34    0.03    0.04   -0.03    0.00    0.00      -0.52    0.21   -0.15
#   3   -0.13   -0.17    0.01    0.08   -0.02    0.00    0.00      -0.23    0.77   -0.16
#   4   -0.33   -0.66    0.21    0.12   -0.04    0.00    0.00      -0.69    0.56   -0.17
#   5   -0.66   -0.89    0.29    0.22   -0.02    0.00    0.00      -1.06    0.72   -0.08
#   6    1.99   -2.03    1.41   -0.56   -0.14    0.00    0.00       0.68   -1.50   -0.37
#   7  -11.07   -1.34    0.22    1.28    0.48    0.00    0.00     -10.44    3.98    1.51
#   8    2.38   -1.17    0.16   -0.41   -0.19    0.00    0.00       0.76   -1.41   -0.66
#   9   -1.02   -1.89    0.85    1.51    0.12    0.00    0.00      -0.44    4.72    0.38
#  10   -0.66   -0.49    0.04   -0.19   -0.05    0.00    0.00      -1.35   -0.84   -0.24
#  11   -0.17   -0.15    0.00   -0.09   -0.02    0.00    0.00      -0.43   -1.12   -0.19
#  12   -0.72   -0.14    0.01   -0.24   -0.02    0.00    0.00      -1.12   -2.84   -0.24
#  13   -0.02   -0.07    0.00    0.03   -0.02    0.00    0.00      -0.08    0.61   -0.49
#  14   -1.97   -0.12    0.00   -1.24    0.05    0.00    0.00      -3.27  -19.64    0.86
#  15    1.80    0.00    0.00    0.66    0.02    0.00    0.00       2.48   15.67    0.58
#  16    1.74    0.00    0.00    0.56    0.02    0.00    0.00       2.31   15.30    0.58
#  17    0.69    0.00    0.00    0.30    0.01    0.00    0.00       1.01   16.03    0.60
#  18   -0.66   -0.41    0.04    0.20   -0.04    0.00    0.00      -0.87    0.89   -0.17
#  19   -0.56   -0.83    0.11    0.11   -0.09    0.00    0.00      -1.26    0.38   -0.31
#  20   -1.87   -1.33    0.27    0.26   -0.15    0.00    0.00      -2.82    0.67   -0.40
#  21   -1.56   -2.17    0.88    0.18   -0.22    0.00    0.00      -2.89    0.38   -0.47
#  22   -0.04   -1.93    0.55    0.08   -0.16    0.00    0.00      -1.50    0.17   -0.33
#  23   -7.21   -3.35    3.09    1.99    0.27    0.00    0.00      -5.21    3.76    0.52
#  24    5.44   -1.58    0.61   -1.08    0.01    0.00    0.00       3.40   -2.31    0.02
#  25   -9.04   -1.11    0.25    2.82    0.13    0.00    0.00      -6.96    7.61    0.34
#  26    1.98   -1.00    0.08   -0.11   -0.12    0.00    0.00       0.82   -0.30   -0.32
#  27   -2.82   -0.68    0.04    1.25   -0.11    0.00    0.00      -2.32    4.70   -0.41
#  28   13.82   -0.71    0.21   -3.08   -0.03    0.00    0.00      10.21  -14.68   -0.16
#  29  -13.82   -0.59    0.20    3.41   -0.05    0.00    0.00     -10.85   20.31   -0.29
#  30  -23.35   -1.21    0.81    7.46   -0.15    0.00    0.00     -16.44   27.23   -0.56
#  31    0.15   -0.28    0.08    0.05   -0.06    0.00    0.00      -0.07    0.21   -0.28
#  32    0.03   -0.74    1.04    0.03   -0.08    0.00    0.00       0.28    0.11   -0.28
#  33    0.09   -0.14    0.02    0.00   -0.04    0.00    0.00      -0.07   -0.01   -0.28
#  34    0.21   -0.08    0.00   -0.01   -0.01    0.00    0.00       0.12   -0.07   -0.17
#  35    0.05   -0.03    0.00    0.00    0.00    0.00    0.00       0.02   -0.11   -0.19
#  36    0.04   -0.03    0.00    0.00   -0.01    0.00    0.00      -0.01   -0.08   -0.28
#  37    0.05   -0.07    0.00   -0.01   -0.02    0.00    0.00      -0.04   -0.16   -0.28
#  38    0.24   -0.08    0.00   -0.02   -0.02    0.00    0.00       0.13   -0.27   -0.21
#  39    0.05   -0.53    0.63   -0.07   -0.07    0.00    0.00       0.02   -0.28   -0.28
#  40    0.56   -0.51    0.51   -0.12   -0.05    0.00    0.00       0.39   -0.43   -0.16
#  41    1.03   -1.42    1.88    0.01   -0.13    0.00    0.00       1.37    0.02   -0.28
#  42    1.51   -1.18    3.37   -0.25   -0.10    0.00    0.00       3.35   -0.66   -0.28
#  43    8.69   -0.01    0.00   -0.30    0.06    0.00    0.00       8.43   -1.63    0.32
#  44    0.18   -0.17    0.02    0.24   -0.04    0.00    0.00       0.23    1.51   -0.28
#  45    1.19   -0.22    0.04    0.16   -0.05    0.00    0.00       1.11    0.85   -0.28
#  46    0.11   -0.03    0.00    0.00   -0.01    0.00    0.00       0.08    0.13   -0.28
#  47    0.14   -0.03    0.00    0.01   -0.01    0.00    0.00       0.12    0.45   -0.28
#  48    0.56   -0.09    0.02    0.23   -0.02    0.00    0.00       0.70    2.74   -0.28
#  49    0.62   -0.04    0.00    0.08   -0.01    0.00    0.00       0.65    2.19   -0.28
#  50    0.19   -0.01    0.00    0.05    0.00    0.00    0.00       0.22    2.87   -0.28
#  51    0.23   -0.01    0.00    0.05    0.00    0.00    0.00       0.26    3.32   -0.28
#  52    0.37   -0.18    0.07   -0.14   -0.04    0.00    0.00       0.08   -1.03   -0.28
#  53    1.30   -0.07    0.00   -0.04   -0.01    0.00    0.00       1.18   -0.54   -0.21
#  54    1.33   -0.25    0.04   -0.17   -0.08    0.00    0.00       0.87   -0.60   -0.28
#  55    1.43   -0.89    1.07   -0.33   -0.12    0.00    0.00       1.16   -0.76   -0.28
#  56    4.18   -0.78    0.94   -0.62   -0.12    0.00    0.00       3.60   -1.44   -0.28
#  57    1.34   -0.58    0.31   -0.40   -0.10    0.00    0.00       0.56   -1.08   -0.28

@<TRIPOS>MOLECULE
       AVX17542_0       100
   57    58     0     0     0



@<TRIPOS>ATOM
      1 C1         20.4782   -16.1148     8.9938 C.3        1          -0.1445
      2 C2         19.2541   -15.7750     9.8465 C.3        1          -0.1125
      3 C3         19.2216   -14.2691    10.1148 C.3        1          -0.1612
      4 C4         17.9832   -16.1879     9.1014 C.3        1          -0.1182
      5 C5         18.0156   -17.6937     8.8331 C.3        1          -0.0824
      6 C6         16.7445   -18.1066     8.0882 C.3        1           0.1297
      7 N1         15.5725   -17.7813     8.9046 N.am       1          -0.7159
      8 C7         14.9810   -16.5762     8.7845 C.2        1           0.5020
      9 O1         15.4192   -15.7611     8.0005 O.2        1          -0.5497
     10 C8         13.7754   -16.2415     9.6244 C.3        1          -0.1453
     11 C9         14.2305   -15.6022    10.9379 C.3        1          -0.1022
     12 C10        15.1260   -16.5821    11.6986 C.3        1          -0.1530
     13 C11        15.5812   -15.9428    13.0120 C.3        1          -0.0097
     14 N2         16.4410   -16.8835    13.7423 N.4        1          -0.6381
     15 H1         15.9242   -17.7272    13.9404 H          1           0.4343
     16 H2         17.2481   -17.1077    13.1800 H          1           0.4350
     17 H3         16.7412   -16.4619    14.6085 H          1           0.4369
     18 C12        18.0950   -18.4471    10.1624 C.3        1          -0.0614
     19 C13        18.1269   -19.9304     9.8980 C.ar       1          -0.0346
     20 C14        19.1474   -20.4754     9.1510 C.ar       1          -0.1341
     21 C15        19.1845   -21.8380     8.9037 C.ar       1          -0.1025
     22 C16        18.1961   -22.6683     9.4043 C.ar       1          -0.0021
     23 O2         18.0102   -24.0172     9.3026 O.3        1          -0.3185
     24 C17        17.0752   -24.3549    10.3443 C.3        1           0.2048
     25 O3         16.3222   -23.1424    10.5337 O.3        1          -0.2783
     26 C18        17.1570   -22.1332    10.1616 C.ar       1           0.0763
     27 C19        17.1225   -20.7557    10.4163 C.ar       1          -0.1243
     28 C20        16.0327   -20.1790    11.2200 C.2        1           0.5224
     29 O4         16.1522   -20.0835    12.4338 O.co2      1          -0.6755
     30 O5         15.0072   -19.7951    10.6743 O.co2      1          -0.6717
     31 H4         20.5013   -17.1876     8.8025 H          1           0.0473
     32 H5         20.4217   -15.5781     8.0468 H          1           0.0507
     33 H6         21.3837   -15.8207     9.5245 H          1           0.0547
     34 H7         19.3107   -16.3117    10.7934 H          1           0.0777
     35 H8         18.3496   -14.0270    10.7223 H          1           0.0647
     36 H9         20.1271   -13.9750    10.6456 H          1           0.0482
     37 H10        19.1651   -13.7325     9.1677 H          1           0.0603
     38 H11        17.1110   -15.9457     9.7089 H          1           0.0695
     39 H12        17.9265   -15.6511     8.1544 H          1           0.0575
     40 H13        18.8876   -17.9359     8.2256 H          1           0.1018
     41 H14        16.6880   -17.5701     7.1411 H          1           0.0758
     42 H15        16.7677   -19.1795     7.8971 H          1           0.0637
     43 H16        15.2222   -18.4331     9.5317 H          1           0.4045
     44 H17        13.1373   -15.5435     9.0824 H          1           0.0937
     45 H18        13.2173   -17.1530     9.8383 H          1           0.0961
     46 H19        14.7886   -14.6907    10.7240 H          1           0.0832
     47 H20        13.3585   -15.3602    11.5454 H          1           0.0818
     48 H21        14.5678   -17.4935    11.9124 H          1           0.0878
     49 H22        15.9981   -16.8241    11.0910 H          1           0.0890
     50 H23        16.1395   -15.0312    12.7981 H          1           0.1354
     51 H24        14.7092   -15.7005    13.6196 H          1           0.1346
     52 H25        19.0006   -18.1531    10.6931 H          1           0.0504
     53 H26        17.2231   -18.2050    10.7701 H          1           0.1124
     54 H27        19.9232   -19.8366     8.7553 H          1           0.1280
     55 H28        19.9891   -22.2552     8.3164 H          1           0.1248
     56 H29        16.4211   -25.1658    10.0237 H          1           0.1244
     57 H30        17.6023   -24.6255    11.2592 H          1           0.0764
@<TRIPOS>BOND
     1    1    2 1
     2    1   31 1
     3    1   32 1
     4    1   33 1
     5    2    3 1
     6    2    4 1
     7    2   34 1
     8    3   35 1
     9    3   36 1
    10    3   37 1
    11    4    5 1
    12    4   38 1
    13    4   39 1
    14    5    6 1
    15    5   18 1
    16    5   40 1
    17    6    7 1
    18    6   41 1
    19    6   42 1
    20    7    8 am
    21    7   43 1
    22    8    9 2
    23    8   10 1
    24   10   11 1
    25   10   44 1
    26   10   45 1
    27   11   12 1
    28   11   46 1
    29   11   47 1
    30   12   13 1
    31   12   48 1
    32   12   49 1
    33   13   14 1
    34   13   50 1
    35   13   51 1
    36   14   15 1
    37   14   16 1
    38   14   17 1
    39   18   19 1
    40   18   52 1
    41   18   53 1
    42   19   27 ar
    43   19   20 ar
    44   20   21 ar
    45   20   54 1
    46   21   22 ar
    47   21   55 1
    48   22   26 ar
    49   22   23 1
    50   23   24 1
    51   24   25 1
    52   24   56 1
    53   24   57 1
    54   25   26 1
    55   26   27 ar
    56   27   28 1
    57   28   29 1
    58   28   30 2
