AVX17375_2, 3
##########                 Name:           AVX17375_0
##########          Protonation:                  100
##########               SMILES:   c1ccc2c(c1)C[C@@H]([C@@H]2Cc3ccc4c(c3C(=O)[O-])OCO4)O
##########            Long Name:   5-[[(1R,2S)-2-hydroxyindan-1-yl]methyl]-1,3-benzodioxole-4-carboxylate
##########          FlexRecCode: 1
##########               Number:                   28
##########   Ligand Source File: /raid1/people/rgc/Examples/sampl4/screening/ligands/build_1//sampl4-hivint-00000
##########           GlobalRank: 23
##########                 Rank:                    1
##########               Setnum:                    5
##########             Matchnum:                21665
##########                Cloud:                    1
##########        Electrostatic:           -57.677139
##########        Van der Waals:           -13.243393
##########  Ligand Polar Desolv:            26.730452
########## Ligand Apolar Desolv:            -1.366262
##########      Internal Energy:             0.000000
##########      Receptor Energy: 0.0
########## Receptor Desolvation:             0.000000
########## Receptor Hydrophobic:             0.000000
##########         Total Energy: -45.56
##########        Ligand Charge:            -1.000000
##########            Arbitrary:    +999.9990
##########     heavy atom count:   23
##########           pose count:    1
##########        Ligand Energy:             0.000000
# num electro vdwattr vdwrepu polsolv apolsol rdesolv rhydroe totalscore fullpol fullapo
#   1   -4.32   -2.49    1.18    1.99    0.44    0.00    0.00      -3.21    5.55    1.22
#   2    0.85   -0.47    0.04   -0.43   -0.04    0.00    0.00      -0.06   -1.89   -0.16
#   3   -1.01   -0.34    0.01    0.20   -0.06    0.00    0.00      -1.19    0.95   -0.27
#   4   -1.21   -0.38    0.04    0.21   -0.06    0.00    0.00      -1.41    1.57   -0.43
#   5   -0.53   -0.55    0.26    0.14   -0.06    0.00    0.00      -0.74    1.12   -0.47
#   6   -0.57   -0.97    1.28    0.16   -0.06    0.00    0.00      -0.16    1.20   -0.47
#   7   -1.45   -0.58    0.32    0.28   -0.06    0.00    0.00      -1.49    2.05   -0.47
#   8   -1.32   -0.44    0.05    0.54   -0.07    0.00    0.00      -1.25    3.30   -0.45
#   9   -0.85   -0.39    0.02    0.42   -0.06    0.00    0.00      -0.86    2.72   -0.39
#  10   -0.33   -0.39    0.02    0.16   -0.04    0.00    0.00      -0.58    0.68   -0.16
#  11   -1.26   -1.09    0.57    0.26   -0.05    0.00    0.00      -1.56    0.80   -0.16
#  12   -0.80   -1.07    0.18    0.27   -0.11    0.00    0.00      -1.53    0.80   -0.33
#  13   -2.05   -1.10    0.13    0.40   -0.15    0.00    0.00      -2.77    1.08   -0.40
#  14   -1.60   -1.95    0.63    0.22   -0.20    0.00    0.00      -2.91    0.52   -0.47
#  15   -0.14   -1.90    0.62    0.00   -0.14    0.00    0.00      -1.57    0.00   -0.33
#  16   -5.46   -3.51    3.59    2.35    0.24    0.00    0.00      -2.79    5.04    0.52
#  17    4.34   -1.28    0.27   -1.36    0.01    0.00    0.00       1.98   -3.14    0.02
#  18  -10.58   -2.29    2.83    3.85    0.13    0.00    0.00      -6.05    9.76    0.34
#  19    2.30   -1.48    0.50   -0.15   -0.12    0.00    0.00       1.06   -0.38   -0.32
#  20   -4.46   -1.25    0.21    2.53   -0.16    0.00    0.00      -3.12    6.61   -0.41
#  21   23.82   -1.80    0.44   -7.94   -0.07    0.00    0.00      14.45  -18.52   -0.16
#  22  -35.17   -2.92    5.08   10.79   -0.12    0.00    0.00     -22.33   27.34   -0.30
#  23  -34.24   -3.22    1.33   17.20   -0.29    0.00    0.00     -19.23   32.84   -0.56
#  24    1.37   -0.11    0.03   -0.58    0.47    0.00    0.00       1.18   -1.53    1.24
#  25    0.29   -0.08    0.00   -0.07   -0.02    0.00    0.00       0.11   -0.91   -0.28
#  26    0.30   -0.06    0.00   -0.05   -0.01    0.00    0.00       0.19   -1.02   -0.28
#  27    1.00   -0.20    0.02   -0.20   -0.05    0.00    0.00       0.56   -1.07   -0.28
#  28    0.31   -0.07    0.01   -0.10   -0.02    0.00    0.00       0.13   -1.32   -0.28
#  29    0.39   -0.16    0.11   -0.15   -0.03    0.00    0.00       0.15   -1.37   -0.28
#  30    1.13   -0.07    0.01   -0.15   -0.02    0.00    0.00       0.90   -2.00   -0.28
#  31    1.73   -0.11    0.02   -0.19   -0.03    0.00    0.00       1.41   -1.64   -0.27
#  32    1.15   -0.12    0.01    0.00   -0.03    0.00    0.00       1.01    0.03   -0.22
#  33    3.20   -0.39    0.17   -0.15   -0.05    0.00    0.00       2.77   -0.59   -0.20
#  34    1.38   -0.86    1.79   -0.71   -0.08    0.00    0.00       1.52   -2.04   -0.24
#  35    1.76   -0.23    0.05   -0.57   -0.06    0.00    0.00       0.96   -2.44   -0.24
#  36    0.99   -0.76    0.59   -0.85   -0.12    0.00    0.00      -0.16   -2.05   -0.28
#  37    2.23   -0.59    0.29   -1.15   -0.13    0.00    0.00       0.65   -2.42   -0.28
#  38    1.13   -0.28    0.04   -0.44   -0.07    0.00    0.00       0.38   -1.69   -0.28

@<TRIPOS>MOLECULE
       AVX17375_0       100
   38    41     0     0     0



@<TRIPOS>ATOM
      1 O1         16.9508   -17.1240     7.9127 O.3        1          -0.5462
      2 C1         16.9234   -17.1186     9.3413 C.3        1           0.1031
      3 C2         15.4923   -16.9601     9.8660 C.3        1          -0.1098
      4 C3         15.4882   -17.6844    11.1891 C.ar       1          -0.1039
      5 C4         14.6470   -17.5767    12.2833 C.ar       1          -0.1150
      6 C5         14.8546   -18.3659    13.3979 C.ar       1          -0.1322
      7 C6         15.9048   -19.2648    13.4214 C.ar       1          -0.1250
      8 C7         16.7450   -19.3727    12.3303 C.ar       1          -0.0920
      9 C8         16.5376   -18.5827    11.2124 C.ar       1          -0.0583
     10 C9         17.2867   -18.4961     9.9063 C.3        1          -0.0236
     11 C10        16.8269   -19.6014     8.9535 C.3        1          -0.0538
     12 C11        17.1417   -20.9465     9.5555 C.ar       1          -0.0316
     13 C12        18.4440   -21.2796     9.8548 C.ar       1          -0.1195
     14 C13        18.7421   -22.5139    10.4088 C.ar       1          -0.1085
     15 C14        17.7344   -23.4275    10.6682 C.ar       1          -0.0068
     16 O2         17.7679   -24.6849    11.1994 O.3        1          -0.3207
     17 C15        16.4144   -24.9674    11.6011 C.3        1           0.2053
     18 O3         15.6189   -24.1581    10.7148 O.3        1          -0.2792
     19 C16        16.4123   -23.1063    10.3714 C.ar       1           0.0707
     20 C17        16.1102   -21.8557     9.8160 C.ar       1          -0.1271
     21 C18        14.7162   -21.5023     9.5032 C.2        1           0.5214
     22 O4         14.0223   -20.9473    10.3441 O.co2      1          -0.6720
     23 O5         14.2513   -21.7634     8.4020 O.co2      1          -0.6751
     24 H1         17.8121   -17.3516     7.5366 H          1           0.3668
     25 H2         17.5778   -16.3444     9.7419 H          1           0.0665
     26 H3         15.2547   -15.9059    10.0093 H          1           0.0820
     27 H4         14.7826   -17.4203     9.1787 H          1           0.0742
     28 H5         13.8266   -16.8747    12.2654 H          1           0.1112
     29 H6         14.1967   -18.2809    14.2502 H          1           0.1159
     30 H7         16.0678   -19.8826    14.2921 H          1           0.1186
     31 H8         17.5654   -20.0749    12.3494 H          1           0.1297
     32 H9         18.3607   -18.5646    10.0790 H          1           0.1091
     33 H10        15.7521   -19.5181     8.7920 H          1           0.1113
     34 H11        17.3465   -19.4990     8.0008 H          1           0.0607
     35 H12        19.2376   -20.5746     9.6562 H          1           0.1373
     36 H13        19.7668   -22.7653    10.6396 H          1           0.1218
     37 H14        16.1865   -26.0244    11.4629 H          1           0.1217
     38 H15        16.2529   -24.6722    12.6379 H          1           0.0731
@<TRIPOS>BOND
     1    1    2 1
     2    1   24 1
     3    2   10 1
     4    2    3 1
     5    2   25 1
     6    3    4 1
     7    3   26 1
     8    3   27 1
     9    4    9 ar
    10    4    5 ar
    11    5    6 ar
    12    5   28 1
    13    6    7 ar
    14    6   29 1
    15    7    8 ar
    16    7   30 1
    17    8    9 ar
    18    8   31 1
    19    9   10 1
    20   10   11 1
    21   10   32 1
    22   11   12 1
    23   11   33 1
    24   11   34 1
    25   12   20 ar
    26   12   13 ar
    27   13   14 ar
    28   13   35 1
    29   14   15 ar
    30   14   36 1
    31   15   19 ar
    32   15   16 1
    33   16   17 1
    34   17   18 1
    35   17   37 1
    36   17   38 1
    37   18   19 1
    38   19   20 ar
    39   20   21 1
    40   21   22 1
    41   21   23 2
