AVX101140_0, 3
##########                 Name:          AVX101140_0
##########          Protonation:                  100
##########               SMILES:   c1cc2c(cc1Br)C(=O)C(=O)N2Cc3ccc4c(c3C(=O)[O-])OCCO4
##########            Long Name:   mo-2,3-dioxo-indolin-1-yl)methyl]-2,3-dihydro-1,4-benzodioxine-5-carboxylate
##########          FlexRecCode: 1
##########               Number:                  171
##########   Ligand Source File: /raid1/people/rgc/Examples/sampl4/screening/ligands/build_1//sampl4-hivint-00000
##########           GlobalRank: 44
##########                 Rank:                    1
##########               Setnum:                    8
##########             Matchnum:                 4333
##########                Cloud:                    1
##########        Electrostatic:           -35.775337
##########        Van der Waals:           -25.613987
##########  Ligand Polar Desolv:            21.271555
########## Ligand Apolar Desolv:            -3.073643
##########      Internal Energy:             0.000000
##########      Receptor Energy: 0.0
########## Receptor Desolvation:             0.000000
########## Receptor Hydrophobic:             0.000000
##########         Total Energy: -43.19
##########        Ligand Charge:            -1.000000
##########            Arbitrary:    +999.9990
##########     heavy atom count:   26
##########           pose count:    1
##########        Ligand Energy:             0.000000
# num electro vdwattr vdwrepu polsolv apolsol rdesolv rhydroe totalscore fullpol fullapo
#   1  -29.89   -1.93    1.14   10.20   -0.13    0.00    0.00     -20.61   26.19   -0.33
#   2   17.51   -1.51    0.58   -6.35   -0.06    0.00    0.00      10.17  -17.35   -0.17
#   3  -19.21   -2.03    0.79   12.87   -0.27    0.00    0.00      -7.85   28.60   -0.59
#   4   -3.23   -0.78    0.07    1.77   -0.12    0.00    0.00      -2.29    6.14   -0.41
#   5    1.51   -0.67    0.05   -0.41   -0.08    0.00    0.00       0.39   -1.65   -0.30
#   6   -2.83   -0.71    0.06    2.29    0.07    0.00    0.00      -1.11    8.51    0.27
#   7    0.04   -0.57    0.06    0.05   -0.03    0.00    0.00      -0.45    0.20   -0.14
#   8    0.08   -0.25    0.01   -0.03   -0.02    0.00    0.00      -0.21   -0.24   -0.14
#   9   -1.84   -0.43    0.04    0.68    0.11    0.00    0.00      -1.44    4.24    0.68
#  10    0.28   -0.56    0.04   -0.14   -0.06    0.00    0.00      -0.44   -0.66   -0.30
#  11   -1.29   -0.58    0.05    0.22   -0.10    0.00    0.00      -1.70    1.01   -0.46
#  12   -2.20   -0.60    0.06    0.44   -0.09    0.00    0.00      -2.39    2.00   -0.42
#  13   -1.79   -0.67    0.05    0.40   -0.11    0.00    0.00      -2.13    1.53   -0.41
#  14    5.30   -0.65    0.06   -1.59   -0.12    0.00    0.00       3.01   -4.48   -0.33
#  15  -12.79   -0.95    0.12    2.80    0.29    0.00    0.00     -10.53    9.03    0.92
#  16   10.74   -1.02    0.20   -2.37   -0.16    0.00    0.00       7.39   -8.35   -0.58
#  17  -11.34   -0.87    0.07    3.42    0.13    0.00    0.00      -8.59   11.30    0.43
#  18    5.09   -1.12    0.18   -1.76   -0.11    0.00    0.00       2.29   -5.82   -0.35
#  19   -2.67   -1.19    0.28    1.70    0.12    0.00    0.00      -1.77    5.93    0.43
#  20   -2.90   -1.17    0.16    0.82   -0.15    0.00    0.00      -3.25    2.34   -0.44
#  21    3.72   -1.15    0.16   -0.79   -0.26    0.00    0.00       1.69   -2.17   -0.72
#  22   -1.73   -1.80    0.47    0.59   -0.20    0.00    0.00      -2.67    1.34   -0.45
#  23   -0.08   -2.18    0.81   -0.09   -0.22    0.00    0.00      -1.76   -0.19   -0.46
#  24   -0.99   -1.62    0.43    0.31   -0.13    0.00    0.00      -2.00    0.70   -0.30
#  25   -0.17   -4.11    0.82   -0.03   -0.54    0.00    0.00      -4.04   -0.07   -1.10
#  26    0.19   -1.46    0.27   -0.13   -0.18    0.00    0.00      -1.30   -0.34   -0.46
#  27   -0.06   -0.18    0.02   -0.30   -0.04    0.00    0.00      -0.56   -1.97   -0.28
#  28    0.07   -0.33    0.08   -0.30   -0.07    0.00    0.00      -0.55   -1.20   -0.28
#  29    0.33   -0.04    0.00   -0.03   -0.01    0.00    0.00       0.24   -0.85   -0.28
#  30    0.18   -0.06    0.00   -0.07   -0.02    0.00    0.00       0.03   -1.26   -0.28
#  31    0.98   -0.11    0.01   -0.26   -0.03    0.00    0.00       0.58   -2.34   -0.28
#  32    1.62   -0.12    0.02   -0.28   -0.02    0.00    0.00       1.21   -2.39   -0.21
#  33    3.61   -0.26    0.03   -0.79   -0.07    0.00    0.00       2.52   -2.43   -0.22
#  34    4.91   -0.25    0.03   -0.42   -0.07    0.00    0.00       4.20   -1.51   -0.25
#  35    1.95   -0.47    0.19   -0.55   -0.10    0.00    0.00       1.01   -1.51   -0.27
#  36    0.47   -0.51    0.14   -0.32   -0.14    0.00    0.00      -0.36   -0.65   -0.28
#  37    0.68   -0.38    0.13   -0.27   -0.08    0.00    0.00       0.08   -0.91   -0.28

@<TRIPOS>MOLECULE
      AVX101140_0       100
   37    40     0     0     0



@<TRIPOS>ATOM
      1 O1         14.1303   -23.9292    11.1648 O.co2      1          -0.6868
      2 C1         15.3187   -24.0293    11.4378 C.2        1           0.5238
      3 O2         15.9523   -25.0061    11.0622 O.co2      1          -0.6590
      4 C2         15.9874   -22.9720    12.2130 C.ar       1          -0.1255
      5 C3         16.0327   -23.0460    13.6131 C.ar       1           0.0909
      6 O3         15.4482   -24.0955    14.2455 O.3        1          -0.2561
      7 C4         15.8350   -24.3256    15.6047 C.3        1           0.0131
      8 C5         15.8131   -22.9814    16.3447 C.3        1           0.0202
      9 O4         16.7310   -22.0963    15.6936 O.3        1          -0.3129
     10 C6         16.6694   -22.0433    14.3346 C.ar       1           0.0245
     11 C7         17.2513   -20.9759    13.6690 C.ar       1          -0.1102
     12 C8         17.2053   -20.9012    12.2868 C.ar       1          -0.1302
     13 C9         16.5860   -21.8912    11.5566 C.ar       1          -0.0716
     14 C10        16.5479   -21.8071    10.0525 C.3        1           0.1736
     15 N1         17.2383   -20.5918     9.6136 N.am       1          -0.5425
     16 C11        16.6406   -19.3992     9.4481 C.2        1           0.4872
     17 O5         15.4669   -19.1537     9.6321 O.2        1          -0.4322
     18 C12        17.6894   -18.4274     8.9948 C.2        1           0.3951
     19 O6         17.5462   -17.2499     8.7387 O.2        1          -0.3741
     20 C13        18.9328   -19.2176     8.9289 C.ar       1          -0.2442
     21 C14        18.5990   -20.5245     9.3207 C.ar       1           0.2275
     22 C15        19.5942   -21.4920     9.3556 C.ar       1          -0.1414
     23 C16        20.8933   -21.1666     9.0120 C.ar       1          -0.0115
     24 C17        21.2212   -19.8762     8.6297 C.ar       1          -0.1410
     25 Br1        23.0045   -19.4533     8.1637 Br         1          -0.0427
     26 C18        20.2449   -18.9003     8.5795 C.ar       1           0.0241
     27 H1         15.1341   -25.0154    16.0746 H          1           0.1167
     28 H2         16.8405   -24.7452    15.6346 H          1           0.0708
     29 H3         14.8086   -22.5593    16.3105 H          1           0.0729
     30 H4         16.1159   -23.1275    17.3815 H          1           0.1151
     31 H5         17.7436   -20.1967    14.2320 H          1           0.1267
     32 H6         17.6620   -20.0649    11.7785 H          1           0.1120
     33 H7         17.0430   -22.6800     9.6272 H          1           0.1225
     34 H8         15.5114   -21.7776     9.7164 H          1           0.1223
     35 H9         19.3528   -22.5020     9.6525 H          1           0.1503
     36 H10        21.6604   -21.9263     9.0423 H          1           0.1474
     37 H11        20.4988   -17.8936     8.2822 H          1           0.1452
@<TRIPOS>BOND
     1    1    2 1
     2    2    3 2
     3    2    4 1
     4    4   13 ar
     5    4    5 ar
     6    5   10 ar
     7    5    6 1
     8    6    7 1
     9    7    8 1
    10    7   27 1
    11    7   28 1
    12    8    9 1
    13    8   29 1
    14    8   30 1
    15    9   10 1
    16   10   11 ar
    17   11   12 ar
    18   11   31 1
    19   12   13 ar
    20   12   32 1
    21   13   14 1
    22   14   15 1
    23   14   33 1
    24   14   34 1
    25   15   21 1
    26   15   16 am
    27   16   17 2
    28   16   18 1
    29   18   19 2
    30   18   20 1
    31   20   26 ar
    32   20   21 ar
    33   21   22 ar
    34   22   23 ar
    35   22   35 1
    36   23   24 ar
    37   23   36 1
    38   24   25 1
    39   24   26 ar
    40   26   37 1
