AVX101119_0, 3
##########                 Name:          AVX101119_0
##########          Protonation:                   35
##########               SMILES:   CN(Cc1cccc(c1C(=O)[O-])OC)Cc2cc3c(cc2C(=O)NCc4ccc(cc4)OC)OCO3
##########            Long Name:   yl)methylcarbamoyl]-1,3-benzodioxol-5-yl]methyl-methyl-amino]methyl]benzoate
##########          FlexRecCode: 1
##########               Number:                   30
##########   Ligand Source File: /raid1/people/rgc/Examples/sampl4/screening/ligands/build_1//sampl4-hivint-00000
##########           GlobalRank: 65
##########                 Rank:                    1
##########               Setnum:                  130
##########             Matchnum:                 6412
##########                Cloud:                    1
##########        Electrostatic:           -46.257412
##########        Van der Waals:           -16.037271
##########  Ligand Polar Desolv:            23.590832
########## Ligand Apolar Desolv:            -2.115224
##########      Internal Energy:             0.000000
##########      Receptor Energy: 0.0
########## Receptor Desolvation:             0.000000
########## Receptor Hydrophobic:             0.000000
##########         Total Energy: -40.82
##########        Ligand Charge:            -1.000000
##########            Arbitrary:    +999.9990
##########     heavy atom count:   36
##########           pose count:    1
##########        Ligand Energy:             0.000000
# num electro vdwattr vdwrepu polsolv apolsol rdesolv rhydroe totalscore fullpol fullapo
#   1    0.02   -0.18    0.02    0.00    0.00    0.00    0.00      -0.14   -0.01    0.03
#   2   -0.36   -0.37    0.06    0.30    0.11    0.00    0.00      -0.27    2.43    0.93
#   3    0.18   -0.58    0.20   -0.10   -0.04    0.00    0.00      -0.34   -0.78   -0.31
#   4   -0.36   -0.54    0.08    0.18   -0.07    0.00    0.00      -0.71    1.04   -0.42
#   5   -0.12   -0.45    0.04    0.05   -0.08    0.00    0.00      -0.57    0.28   -0.45
#   6   -0.29   -0.36    0.04    0.14   -0.05    0.00    0.00      -0.52    1.04   -0.37
#   7    0.40   -0.29    0.08   -0.18   -0.05    0.00    0.00      -0.03   -1.48   -0.44
#   8   -1.65   -0.20    0.02    0.54    0.19    0.00    0.00      -1.10    6.48    2.32
#   9    1.30   -0.16    0.02   -0.59   -0.05    0.00    0.00       0.51   -8.33   -0.65
#  10   -1.27   -0.17    0.02    0.87    0.03    0.00    0.00      -0.53   10.94    0.32
#  11   -0.38   -0.12    0.00    0.12   -0.02    0.00    0.00      -0.40    2.20   -0.41
#  12   -0.07   -0.09    0.00    0.01   -0.02    0.00    0.00      -0.16    0.38   -0.45
#  13    0.01   -0.17    0.01   -0.02   -0.02    0.00    0.00      -0.20   -0.31   -0.33
#  14    0.05   -0.33    0.04   -0.07   -0.04    0.00    0.00      -0.35   -0.65   -0.33
#  15   -0.22   -0.34    0.03    0.84    0.07    0.00    0.00       0.38    5.93    0.50
#  16    0.14   -0.36    0.04   -0.31    0.00    0.00    0.00      -0.49   -1.81    0.02
#  17   -0.21   -0.19    0.01    0.33    0.05    0.00    0.00       0.00    3.59    0.52
#  18   -0.24   -0.37    0.05    0.33   -0.05    0.00    0.00      -0.29    2.65   -0.38
#  19    0.09   -0.22    0.01    0.05   -0.04    0.00    0.00      -0.10    0.49   -0.39
#  20    1.27   -0.22    0.02   -0.42   -0.04    0.00    0.00       0.62   -3.20   -0.28
#  21   -6.89   -0.42    0.01    2.34    0.35    0.00    0.00      -4.61   13.21    1.95
#  22    0.14   -0.27    0.01   -0.11   -0.08    0.00    0.00      -0.30   -0.62   -0.44
#  23    2.60   -0.56    0.06   -0.79   -0.08    0.00    0.00       1.22   -2.91   -0.31
#  24   -0.36   -0.89    0.12    0.12   -0.09    0.00    0.00      -1.10    0.42   -0.32
#  25   -2.86   -0.99    0.13    0.82   -0.13    0.00    0.00      -3.04    2.54   -0.41
#  26   -1.27   -1.44    0.31    0.12   -0.19    0.00    0.00      -2.47    0.29   -0.47
#  27   -3.69   -2.06    0.76    1.64   -0.20    0.00    0.00      -3.55    3.49   -0.42
#  28    3.64   -1.37    0.18   -1.25   -0.13    0.00    0.00       1.07   -2.89   -0.31
#  29   -7.13   -1.76    0.47    4.58    0.16    0.00    0.00      -3.68   10.02    0.36
#  30    0.42   -1.47    0.52   -0.03    0.01    0.00    0.00      -0.54   -0.06    0.03
#  31   -4.40   -0.98    0.09    2.81   -0.14    0.00    0.00      -2.62    8.06   -0.41
#  32   22.04   -1.39    0.40   -6.91   -0.06    0.00    0.00      14.08  -19.00   -0.17
#  33  -29.60   -1.96    2.88    8.09   -0.09    0.00    0.00     -20.69   28.26   -0.31
#  34  -34.56   -2.59    2.20   15.33   -0.27    0.00    0.00     -19.89   33.63   -0.59
#  35   -0.09   -0.26    0.02    0.05   -0.05    0.00    0.00      -0.33    0.50   -0.45
#  36   -0.19   -0.38    0.08    0.15   -0.05    0.00    0.00      -0.40    1.39   -0.46
#  37    0.08   -0.04    0.00    0.00   -0.01    0.00    0.00       0.03   -0.10   -0.28
#  38    0.05   -0.10    0.02   -0.01   -0.02    0.00    0.00      -0.06   -0.11   -0.26
#  39    0.04   -0.02    0.00    0.00   -0.01    0.00    0.00       0.02   -0.11   -0.26
#  40    0.23   -0.11    0.01   -0.05   -0.03    0.00    0.00       0.05   -0.44   -0.22
#  41    0.31   -0.09    0.01   -0.05   -0.03    0.00    0.00       0.15   -0.53   -0.28
#  42    0.15   -0.03    0.00   -0.02   -0.01    0.00    0.00       0.09   -0.61   -0.28
#  43    0.26   -0.40    0.54   -0.12   -0.05    0.00    0.00       0.23   -0.70   -0.28
#  44    0.78    0.00    0.00   -0.07    0.01    0.00    0.00       0.72   -2.75    0.43
#  45    0.12   -0.01    0.00   -0.02    0.00    0.00    0.00       0.09   -1.56   -0.22
#  46    0.09   -0.26    0.07   -0.26   -0.06    0.00    0.00      -0.42   -1.17   -0.28
#  47    0.05   -0.09    0.01   -0.08   -0.03    0.00    0.00      -0.15   -0.94   -0.28
#  48    0.72   -0.10    0.02   -0.27   -0.02    0.00    0.00       0.35   -2.55   -0.22
#  49    1.45   -0.07    0.00   -0.06   -0.02    0.00    0.00       1.29   -0.82   -0.25
#  50    0.76   -0.11    0.04   -0.16   -0.02    0.00    0.00       0.51   -1.66   -0.22
#  51    0.43   -0.15    0.01   -0.20   -0.04    0.00    0.00       0.05   -1.26   -0.22
#  52    0.59   -0.07    0.00   -0.05   -0.01    0.00    0.00       0.45   -0.97   -0.23
#  53    0.07   -0.04    0.00   -0.03   -0.01    0.00    0.00      -0.01   -0.95   -0.28
#  54    3.99   -0.19    0.04   -0.17   -0.04    0.00    0.00       3.62   -0.91   -0.20
#  55    0.40   -0.36    0.10   -0.38   -0.07    0.00    0.00      -0.30   -1.48   -0.27
#  56    1.33   -0.16    0.01   -0.44   -0.05    0.00    0.00       0.69   -2.29   -0.28
#  57    1.05   -0.31    0.07   -0.55   -0.08    0.00    0.00       0.18   -1.81   -0.28
#  58    1.34   -1.21    2.29   -1.03   -0.09    0.00    0.00       1.30   -2.41   -0.22
#  59    0.71   -0.51    0.13   -0.54   -0.11    0.00    0.00      -0.32   -1.27   -0.26
#  60    0.51   -1.09    1.86   -0.46   -0.10    0.00    0.00       0.72   -1.24   -0.26
#  61    1.84   -0.19    0.01   -0.35   -0.06    0.00    0.00       1.25   -1.72   -0.28
#  62    0.19   -0.03    0.00   -0.02   -0.01    0.00    0.00       0.14   -0.99   -0.28
#  63    0.14   -0.04    0.00   -0.05   -0.01    0.00    0.00       0.04   -0.99   -0.28

@<TRIPOS>MOLECULE
      AVX101119_0        35
   63    66     0     0     0



@<TRIPOS>ATOM
      1 C1          7.4605   -13.7940    12.2342 C.3        1           0.0267
      2 O1          8.5622   -14.2542    11.4490 O.3        1          -0.3178
      3 C2          9.5453   -14.9290    12.1011 C.ar       1           0.1324
      4 C3         10.6471   -15.3992    11.4015 C.ar       1          -0.2113
      5 C4         11.6453   -16.0844    12.0667 C.ar       1          -0.0594
      6 C5         11.5468   -16.3021    13.4285 C.ar       1          -0.1447
      7 C6         12.6368   -17.0503    14.1516 C.3        1           0.1669
      8 N1         13.9436   -16.5530    13.7140 N.am       1          -0.7278
      9 C7         15.0720   -17.0790    14.2299 C.2        1           0.5687
     10 O2         15.0057   -17.9662    15.0586 O.2        1          -0.5238
     11 C8         16.3887   -16.5778    13.7891 C.ar       1          -0.1460
     12 C9         16.9973   -15.5175    14.4670 C.ar       1          -0.0700
     13 C10        18.2278   -15.0528    14.0509 C.ar       1           0.0067
     14 C11        18.8629   -15.6413    12.9550 C.ar       1           0.0623
     15 O3         20.0464   -14.9958    12.7656 O.3        1          -0.3018
     16 C12        20.3479   -14.3250    13.9981 C.3        1           0.2121
     17 O4         19.0352   -14.0569    14.5134 O.3        1          -0.3108
     18 C13        18.2587   -16.6933    12.2832 C.ar       1          -0.0790
     19 C14        17.0317   -17.1658    12.6976 C.ar       1           0.0189
     20 C15        16.3810   -18.3132    11.9685 C.3        1           0.1100
     21 N2         16.4916   -18.0983    10.5196 N.3        1          -0.5128
     22 C16        15.8284   -16.8498    10.1203 C.3        1           0.0172
     23 C17        15.9506   -19.2433     9.7749 C.3        1           0.1078
     24 C18        16.9743   -20.3488     9.7402 C.ar       1          -0.0148
     25 C19        18.2920   -20.0603     9.4614 C.ar       1          -0.1739
     26 C20        19.2380   -21.0722     9.4286 C.ar       1          -0.0927
     27 C21        18.8712   -22.3805     9.6745 C.ar       1          -0.2344
     28 C22        17.5494   -22.6909     9.9566 C.ar       1           0.1504
     29 O5         17.1877   -23.9753    10.1979 O.3        1          -0.2673
     30 C23        17.2454   -24.4216    11.5542 C.3        1           0.0229
     31 C24        16.5889   -21.6684     9.9966 C.ar       1          -0.1465
     32 C25        15.1841   -21.9836    10.3012 C.2        1           0.5249
     33 O6         14.7914   -21.9699    11.4597 O.co2      1          -0.6663
     34 O7         14.4089   -22.2594     9.3957 O.co2      1          -0.6792
     35 C26        10.4498   -15.8341    14.1282 C.ar       1          -0.0583
     36 C27         9.4515   -15.1437    13.4685 C.ar       1          -0.1531
     37 H1          6.7497   -13.2730    11.5926 H          1           0.1000
     38 H2          6.9688   -14.6455    12.7046 H          1           0.0562
     39 H3          7.8224   -13.1126    13.0040 H          1           0.0559
     40 H4         10.7243   -15.2300    10.3376 H          1           0.1288
     41 H5         12.5033   -16.4506    11.5224 H          1           0.1276
     42 H6         12.5313   -16.8980    15.2256 H          1           0.0789
     43 H7         12.5587   -18.1138    13.9262 H          1           0.0761
     44 H8         13.9965   -15.8452    13.0527 H          1           0.3995
     45 H9         16.5052   -15.0629    15.3141 H          1           0.1319
     46 H10        20.9053   -14.9768    14.6708 H          1           0.1295
     47 H11        20.8918   -13.3983    13.8148 H          1           0.0814
     48 H12        18.7524   -17.1462    11.4362 H          1           0.1621
     49 H13        16.8803   -19.2442    12.2370 H          1           0.1058
     50 H14        15.3290   -18.3715    12.2481 H          1           0.0644
     51 H15        15.9254   -16.7155     9.0430 H          1           0.0582
     52 H16        14.7726   -16.8980    10.3869 H          1           0.0668
     53 H17        16.2952   -16.0099    10.6346 H          1           0.0175
     54 H18        15.0457   -19.6013    10.2659 H          1           0.1230
     55 H19        15.7139   -18.9352     8.7565 H          1           0.0164
     56 H20        18.5894   -19.0403     9.2672 H          1           0.1096
     57 H21        20.2687   -20.8362     9.2087 H          1           0.1109
     58 H22        19.6148   -23.1632     9.6469 H          1           0.1159
     59 H23        16.9313   -25.4639    11.6075 H          1           0.0441
     60 H24        18.2670   -24.3307    11.9233 H          1           0.0441
     61 H25        16.5822   -23.8105    12.1665 H          1           0.0919
     62 H26        10.3752   -16.0051    15.1919 H          1           0.1344
     63 H27         8.5967   -14.7751    14.0160 H          1           0.1328
@<TRIPOS>BOND
     1    1    2 1
     2    1   37 1
     3    1   38 1
     4    1   39 1
     5    2    3 1
     6    3   36 ar
     7    3    4 ar
     8    4    5 ar
     9    4   40 1
    10    5    6 ar
    11    5   41 1
    12    6    7 1
    13    6   35 ar
    14    7    8 1
    15    7   42 1
    16    7   43 1
    17    8    9 am
    18    8   44 1
    19    9   10 2
    20    9   11 1
    21   11   19 ar
    22   11   12 ar
    23   12   13 ar
    24   12   45 1
    25   13   17 1
    26   13   14 ar
    27   14   15 1
    28   14   18 ar
    29   15   16 1
    30   16   17 1
    31   16   46 1
    32   16   47 1
    33   18   19 ar
    34   18   48 1
    35   19   20 1
    36   20   21 1
    37   20   49 1
    38   20   50 1
    39   21   22 1
    40   21   23 1
    41   22   51 1
    42   22   52 1
    43   22   53 1
    44   23   24 1
    45   23   54 1
    46   23   55 1
    47   24   31 ar
    48   24   25 ar
    49   25   26 ar
    50   25   56 1
    51   26   27 ar
    52   26   57 1
    53   27   28 ar
    54   27   58 1
    55   28   29 1
    56   28   31 ar
    57   29   30 1
    58   30   59 1
    59   30   60 1
    60   30   61 1
    61   31   32 1
    62   32   33 1
    63   32   34 2
    64   35   36 ar
    65   35   62 1
    66   36   63 1
