AVX17257_0, 3
##########                 Name:           AVX17257_0
##########          Protonation:                  100
##########               SMILES:   c1ccc2c(c1)CC(=O)N2Cc3ccccc3C(=O)[O-]
##########            Long Name:   2-[(2-oxoindolin-1-yl)methyl]benzoate
##########          FlexRecCode: 1
##########               Number:                  420
##########   Ligand Source File: /raid1/people/rgc/Examples/sampl4/screening/ligands/build_1//sampl4-hivint-00000
##########           GlobalRank: 69
##########                 Rank:                    1
##########               Setnum:                    8
##########             Matchnum:                10610
##########                Cloud:                    1
##########        Electrostatic:           -45.391113
##########        Van der Waals:           -17.516384
##########  Ligand Polar Desolv:            25.202982
########## Ligand Apolar Desolv:            -2.779336
##########      Internal Energy:             0.000000
##########      Receptor Energy: 0.0
########## Receptor Desolvation:             0.000000
########## Receptor Hydrophobic:             0.000000
##########         Total Energy: -40.48
##########        Ligand Charge:            -1.000000
##########            Arbitrary:    +999.9990
##########     heavy atom count:   20
##########           pose count:    1
##########        Ligand Energy:             0.000000
# num electro vdwattr vdwrepu polsolv apolsol rdesolv rhydroe totalscore fullpol fullapo
#   1  -31.82   -2.34    1.19   13.83   -0.18    0.00    0.00     -19.32   30.93   -0.40
#   2   21.04   -1.78    0.84   -6.85   -0.06    0.00    0.00      13.19  -18.36   -0.17
#   3  -25.05   -2.52    2.12   12.39   -0.14    0.00    0.00     -13.20   29.32   -0.33
#   4   -4.62   -1.32    0.84    1.80   -0.11    0.00    0.00      -3.40    6.67   -0.41
#   5   -2.00   -1.04    0.60    0.54   -0.10    0.00    0.00      -2.00    2.53   -0.46
#   6   -2.17   -0.68    0.30    0.25   -0.07    0.00    0.00      -2.38    1.59   -0.47
#   7   -1.96   -0.59    0.22    0.14   -0.08    0.00    0.00      -2.27    0.89   -0.47
#   8   -2.94   -0.71    0.29    0.43   -0.08    0.00    0.00      -3.00    2.33   -0.42
#   9   -2.39   -1.02    0.52    0.56   -0.10    0.00    0.00      -2.42    2.27   -0.41
#  10    6.20   -0.75    0.11   -1.88   -0.11    0.00    0.00       3.57   -5.31   -0.32
#  11  -15.30   -0.97    0.13    3.41    0.27    0.00    0.00     -12.47   11.04    0.89
#  12   13.21   -1.15    0.24   -2.60   -0.18    0.00    0.00       9.53   -8.68   -0.59
#  13  -14.62   -1.19    0.16    4.62    0.14    0.00    0.00     -10.89   13.63    0.42
#  14   -1.73   -0.75    0.13    0.17   -0.09    0.00    0.00      -2.27    0.57   -0.30
#  15   -2.19   -1.08    0.15    0.38   -0.14    0.00    0.00      -2.88    1.16   -0.43
#  16   -0.64   -1.28    0.25    0.05   -0.17    0.00    0.00      -1.80    0.13   -0.47
#  17   -1.22   -1.84    1.03    0.17   -0.20    0.00    0.00      -2.06    0.40   -0.47
#  18   -0.76   -2.19    0.85    0.35   -0.21    0.00    0.00      -1.97    0.77   -0.47
#  19   -2.08   -1.47    0.25    1.15   -0.19    0.00    0.00      -2.34    2.69   -0.45
#  20    3.12   -1.01    0.12   -0.34   -0.24    0.00    0.00       1.65   -1.01   -0.70
#  21    2.29   -0.14    0.01   -0.38   -0.04    0.00    0.00       1.75   -2.66   -0.26
#  22    0.91   -0.06    0.00   -0.16   -0.02    0.00    0.00       0.68   -2.41   -0.28
#  23    1.02   -0.06    0.00   -0.13   -0.02    0.00    0.00       0.82   -2.07   -0.28
#  24    1.94   -0.09    0.01   -0.24   -0.02    0.00    0.00       1.60   -2.47   -0.21
#  25    3.98   -0.31    0.10   -0.48   -0.06    0.00    0.00       3.23   -1.82   -0.22
#  26    5.23   -0.30    0.05   -0.38   -0.09    0.00    0.00       4.51   -1.01   -0.25
#  27    1.72   -0.54    0.23   -0.39   -0.10    0.00    0.00       0.94   -1.14   -0.28
#  28    1.20   -0.10    0.00   -0.11   -0.03    0.00    0.00       0.96   -1.06   -0.28
#  29    0.75   -0.26    0.04   -0.05   -0.07    0.00    0.00       0.41   -0.19   -0.28
#  30    0.69   -0.29    0.06   -0.07   -0.08    0.00    0.00       0.31   -0.26   -0.28
#  31    0.62   -0.67    0.36   -0.54   -0.13    0.00    0.00      -0.35   -1.13   -0.28
#  32    2.20   -0.34    0.07   -0.46   -0.09    0.00    0.00       1.39   -1.38   -0.27

@<TRIPOS>MOLECULE
       AVX17257_0       100
   32    34     0     0     0



@<TRIPOS>ATOM
      1 O1         13.1275   -23.7344    11.0458 O.co2      1          -0.6828
      2 C1         14.2726   -23.8875    11.4468 C.2        1           0.5203
      3 O2         14.8806   -24.9153    11.1828 O.co2      1          -0.6830
      4 C2         14.9227   -22.8299    12.2440 C.ar       1          -0.1302
      5 C3         14.8191   -22.8374    13.6375 C.ar       1          -0.0823
      6 C4         15.4297   -21.8458    14.3763 C.ar       1          -0.1405
      7 C5         16.1434   -20.8448    13.7406 C.ar       1          -0.1250
      8 C6         16.2501   -20.8310    12.3612 C.ar       1          -0.1284
      9 C7         15.6495   -21.8194    11.6097 C.ar       1          -0.0711
     10 C8         15.7721   -21.8062    10.1078 C.3        1           0.1681
     11 N1         16.5772   -20.6544     9.6937 N.am       1          -0.5481
     12 C9         16.0651   -19.4431     9.4175 C.2        1           0.5198
     13 O3         14.8952   -19.1272     9.4670 O.2        1          -0.4976
     14 C10        17.2233   -18.5471     9.0330 C.3        1          -0.1132
     15 C11        18.4341   -19.4452     9.1404 C.ar       1          -0.1523
     16 C12        19.7775   -19.2356     8.9240 C.ar       1          -0.0686
     17 C13        20.6759   -20.2725     9.1058 C.ar       1          -0.1507
     18 C14        20.2198   -21.5159     9.5043 C.ar       1          -0.0839
     19 C15        18.8744   -21.7286     9.7214 C.ar       1          -0.1351
     20 C16        17.9643   -20.6876     9.5466 C.ar       1           0.1588
     21 H1         14.2620   -23.6177    14.1347 H          1           0.1276
     22 H2         15.3506   -21.8504    15.4533 H          1           0.1145
     23 H3         16.6189   -20.0704    14.3242 H          1           0.1116
     24 H4         16.8084   -20.0464    11.8719 H          1           0.1059
     25 H5         16.2543   -22.7252     9.7745 H          1           0.1096
     26 H6         14.7796   -21.7346     9.6628 H          1           0.1139
     27 H7         17.1045   -18.1867     8.0112 H          1           0.1192
     28 H8         17.3055   -17.7105     9.7269 H          1           0.1183
     29 H9         20.1297   -18.2634     8.6125 H          1           0.1245
     30 H10        21.7303   -20.1112     8.9365 H          1           0.1250
     31 H11        20.9210   -22.3249     9.6461 H          1           0.1276
     32 H12        18.5259   -22.7024    10.0321 H          1           0.1281
@<TRIPOS>BOND
     1    1    2 1
     2    2    3 2
     3    2    4 1
     4    4    9 ar
     5    4    5 ar
     6    5    6 ar
     7    5   21 1
     8    6    7 ar
     9    6   22 1
    10    7    8 ar
    11    7   23 1
    12    8    9 ar
    13    8   24 1
    14    9   10 1
    15   10   11 1
    16   10   25 1
    17   10   26 1
    18   11   20 1
    19   11   12 am
    20   12   13 2
    21   12   14 1
    22   14   15 1
    23   14   27 1
    24   14   28 1
    25   15   20 ar
    26   15   16 ar
    27   16   17 ar
    28   16   29 1
    29   17   18 ar
    30   17   30 1
    31   18   19 ar
    32   18   31 1
    33   19   20 ar
    34   19   32 1
