AVX17389_0, 3
##########                 Name:           AVX17389_0
##########          Protonation:                  100
##########               SMILES:   c1cc(c2c(c1)OCO2)C(=O)NCC(=O)[O-]
##########            Long Name:   2-(1,3-benzodioxole-4-carbonylamino)acetate
##########          FlexRecCode: 1
##########               Number:                  166
##########   Ligand Source File: /raid1/people/rgc/Examples/sampl4/screening/ligands/build_1//sampl4-hivint-00000
##########           GlobalRank: 75
##########                 Rank:                    1
##########               Setnum:                    4
##########             Matchnum:                20859
##########                Cloud:                    1
##########        Electrostatic:           -52.370399
##########        Van der Waals:           -10.353556
##########  Ligand Polar Desolv:            23.830349
########## Ligand Apolar Desolv:            -1.075390
##########      Internal Energy:             0.000000
##########      Receptor Energy: 0.0
########## Receptor Desolvation:             0.000000
########## Receptor Hydrophobic:             0.000000
##########         Total Energy: -39.97
##########        Ligand Charge:            -1.000000
##########            Arbitrary:    +999.9990
##########     heavy atom count:   16
##########           pose count:    1
##########        Ligand Energy:             0.000000
# num electro vdwattr vdwrepu polsolv apolsol rdesolv rhydroe totalscore fullpol fullapo
#   1  -36.32   -3.54    4.11   11.46   -0.19    0.00    0.00     -24.49   24.09   -0.41
#   2   25.30   -2.40    1.17   -6.81   -0.08    0.00    0.00      17.19  -15.23   -0.17
#   3  -37.07   -3.49    4.61   11.55   -0.18    0.00    0.00     -24.58   27.98   -0.43
#   4    2.32   -1.86    1.31   -1.15   -0.21    0.00    0.00       0.41   -2.53   -0.47
#   5  -23.23   -1.65    0.65    6.02    0.87    0.00    0.00     -17.34   16.02    2.31
#   6   14.67   -2.39    2.47   -4.93   -0.26    0.00    0.00       9.56  -12.11   -0.65
#   7  -14.72   -3.11    1.97    8.15   -0.02    0.00    0.00      -7.72   15.91   -0.03
#   8   -1.90   -1.44    0.40    1.07   -0.15    0.00    0.00      -2.02    2.99   -0.41
#   9    1.08   -1.52    0.43   -0.26   -0.13    0.00    0.00      -0.39   -0.65   -0.32
#  10   -2.61   -1.94    0.77    2.87    0.17    0.00    0.00      -0.74    5.92    0.35
#  11    0.99   -1.48    0.52   -1.01    0.01    0.00    0.00      -0.97   -1.82    0.02
#  12   -1.63   -1.40    0.53    1.45    0.24    0.00    0.00      -0.81    3.20    0.52
#  13    0.11   -1.46    0.55   -0.02   -0.12    0.00    0.00      -0.94   -0.05   -0.33
#  14   -0.41   -1.26    0.30    0.05   -0.15    0.00    0.00      -1.48    0.15   -0.47
#  15   -0.67   -1.30    0.50    0.11   -0.14    0.00    0.00      -1.50    0.38   -0.47
#  16   -1.00   -1.27    0.26    0.31   -0.14    0.00    0.00      -1.86    0.94   -0.44
#  17    3.09   -0.68    1.21   -0.63   -0.09    0.00    0.00       2.90   -1.99   -0.28
#  18    3.47   -1.38    1.93   -1.08   -0.15    0.00    0.00       2.80   -2.03   -0.28
#  19   12.31   -0.01    0.00   -1.73    0.07    0.00    0.00      10.64   -9.02    0.37
#  20    0.10   -0.46    0.07   -0.62   -0.15    0.00    0.00      -1.05   -1.16   -0.28
#  21    0.46   -0.86    1.32   -0.42   -0.13    0.00    0.00       0.38   -0.93   -0.28
#  22    0.44   -0.21    0.03   -0.12   -0.06    0.00    0.00       0.09   -0.60   -0.28
#  23    0.43   -0.22    0.07   -0.07   -0.04    0.00    0.00       0.17   -0.50   -0.28
#  24    2.41   -0.25    0.04   -0.38   -0.05    0.00    0.00       1.78   -1.73   -0.22

@<TRIPOS>MOLECULE
       AVX17389_0       100
   24    25     0     0     0



@<TRIPOS>ATOM
      1 O1         13.2573   -20.6568     9.3140 O.co2      1          -0.6923
      2 C1         13.8665   -21.6347     9.7129 C.2        1           0.4913
      3 O2         13.4221   -22.2948    10.6365 O.co2      1          -0.6870
      4 C2         15.1658   -22.0309     9.0602 C.3        1           0.0506
      5 N1         16.1306   -20.9362     9.1889 N.am       1          -0.6918
      6 C3         17.3701   -21.0665     8.6757 C.2        1           0.5422
      7 O3         17.6874   -22.0927     8.1060 O.2        1          -0.5423
      8 C4         18.3419   -19.9639     8.8053 C.ar       1          -0.1102
      9 C5         19.7127   -20.2389     8.8719 C.ar       1           0.0931
     10 O4         20.4018   -21.4135     8.8407 O.3        1          -0.2807
     11 C6         21.7618   -21.0541     8.5331 C.3        1           0.2068
     12 O5         21.8828   -19.7112     9.0382 O.3        1          -0.3101
     13 C7         20.6212   -19.1908     8.9935 C.ar       1           0.0153
     14 C8         20.1653   -17.8844     9.0476 C.ar       1          -0.0815
     15 C9         18.8089   -17.6127     8.9814 C.ar       1          -0.1182
     16 C10        17.8985   -18.6394     8.8563 C.ar       1          -0.0756
     17 H1         15.5604   -22.9223     9.5479 H          1           0.0679
     18 H2         14.9929   -22.2407     8.0047 H          1           0.0679
     19 H3         15.8776   -20.1175     9.6434 H          1           0.4071
     20 H4         22.4584   -21.7194     9.0431 H          1           0.1320
     21 H5         21.9293   -21.0749     7.4563 H          1           0.0845
     22 H6         20.8714   -17.0727     9.1423 H          1           0.1376
     23 H7         18.4631   -16.5905     9.0245 H          1           0.1449
     24 H8         16.8423   -18.4209     8.8011 H          1           0.1484
@<TRIPOS>BOND
     1    1    2 1
     2    2    3 2
     3    2    4 1
     4    4    5 1
     5    4   17 1
     6    4   18 1
     7    5    6 am
     8    5   19 1
     9    6    7 2
    10    6    8 1
    11    8   16 ar
    12    8    9 ar
    13    9   13 ar
    14    9   10 1
    15   10   11 1
    16   11   12 1
    17   11   20 1
    18   11   21 1
    19   12   13 1
    20   13   14 ar
    21   14   15 ar
    22   14   22 1
    23   15   16 ar
    24   15   23 1
    25   16   24 1
