AVX17377_0, 3
##########                 Name:           AVX17377_0
##########          Protonation:                  100
##########               SMILES:   c1ccc2c(c1)CC(=O)N2Cc3ccc4c(c3C(=O)[O-])OCO4
##########            Long Name:   5-[(2-oxoindolin-1-yl)methyl]-1,3-benzodioxole-4-carboxylate
##########          FlexRecCode: 1
##########               Number:                  233
##########   Ligand Source File: /raid1/people/rgc/Examples/sampl4/screening/ligands/build_1//sampl4-hivint-00000
##########           GlobalRank: 32
##########                 Rank:                    1
##########               Setnum:                    6
##########             Matchnum:                19433
##########                Cloud:                    1
##########        Electrostatic:           -44.029533
##########        Van der Waals:           -19.636530
##########  Ligand Polar Desolv:            22.758200
########## Ligand Apolar Desolv:            -3.024916
##########      Internal Energy:             0.000000
##########      Receptor Energy: 0.0
########## Receptor Desolvation:             0.000000
########## Receptor Hydrophobic:             0.000000
##########         Total Energy: -43.93
##########        Ligand Charge:            -1.000000
##########            Arbitrary:    +999.9990
##########     heavy atom count:   23
##########           pose count:    1
##########        Ligand Energy:             0.000000
# num electro vdwattr vdwrepu polsolv apolsol rdesolv rhydroe totalscore fullpol fullapo
#   1  -33.66   -2.13    1.20   11.10   -0.13    0.00    0.00     -23.62   28.40   -0.32
#   2   20.29   -1.48    0.64   -6.19   -0.06    0.00    0.00      13.21  -18.64   -0.17
#   3  -22.99   -1.90    1.14   12.26   -0.22    0.00    0.00     -11.71   31.08   -0.56
#   4   -3.49   -0.84    0.20    1.56   -0.10    0.00    0.00      -2.66    6.44   -0.41
#   5    1.87   -0.85    0.44   -0.19   -0.06    0.00    0.00       1.21   -0.98   -0.32
#   6   -5.21   -0.66    0.20    1.76    0.07    0.00    0.00      -3.84    9.15    0.34
#   7    1.65   -0.25    0.02   -0.42    0.00    0.00    0.00       1.00   -2.92    0.02
#   8   -2.46   -0.27    0.02    0.61    0.07    0.00    0.00      -2.04    4.79    0.52
#   9    0.04   -0.49    0.07   -0.06   -0.06    0.00    0.00      -0.50   -0.38   -0.33
#  10   -1.19   -0.55    0.06    0.12   -0.09    0.00    0.00      -1.66    0.59   -0.47
#  11   -1.96   -0.65    0.10    0.37   -0.09    0.00    0.00      -2.22    1.75   -0.42
#  12   -1.43   -0.64    0.04    0.40   -0.10    0.00    0.00      -1.73    1.60   -0.41
#  13    4.78   -0.69    0.07   -1.89   -0.12    0.00    0.00       2.15   -5.13   -0.32
#  14  -11.07   -1.14    0.17    3.60    0.32    0.00    0.00      -8.11   10.25    0.91
#  15    9.46   -1.50    0.61   -2.70   -0.20    0.00    0.00       5.67   -8.06   -0.59
#  16  -10.26   -1.56    0.53    4.22    0.14    0.00    0.00      -6.93   12.76    0.42
#  17   -1.12   -1.10    0.31    0.19   -0.11    0.00    0.00      -1.83    0.50   -0.30
#  18   -1.51   -1.48    0.38    0.40   -0.17    0.00    0.00      -2.38    1.01   -0.43
#  19   -0.45   -1.58    0.38    0.05   -0.21    0.00    0.00      -1.81    0.11   -0.47
#  20   -0.55   -2.03    0.52    0.20   -0.26    0.00    0.00      -2.12    0.37   -0.47
#  21   -0.30   -3.25    1.66    0.41   -0.26    0.00    0.00      -1.75    0.74   -0.47
#  22   -1.26   -2.61    1.27    1.17   -0.21    0.00    0.00      -1.64    2.49   -0.45
#  23    2.11   -1.44    0.32   -0.39   -0.28    0.00    0.00       0.31   -0.97   -0.70
#  24    0.58   -0.05    0.00   -0.10   -0.01    0.00    0.00       0.42   -2.31   -0.28
#  25    0.41   -0.09    0.00   -0.15   -0.02    0.00    0.00       0.15   -1.69   -0.28
#  26    0.96   -0.12    0.02   -0.28   -0.03    0.00    0.00       0.54   -2.43   -0.28
#  27    1.56   -0.18    0.07   -0.38   -0.03    0.00    0.00       1.05   -2.74   -0.21
#  28    3.12   -0.25    0.02   -0.69   -0.08    0.00    0.00       2.12   -2.01   -0.22
#  29    4.22   -0.29    0.06   -0.33   -0.07    0.00    0.00       3.60   -1.23   -0.25
#  30    0.90   -1.03    2.04   -0.41   -0.12    0.00    0.00       1.37   -0.98   -0.28
#  31    0.72   -0.20    0.03   -0.16   -0.05    0.00    0.00       0.34   -0.89   -0.28
#  32    0.72   -0.26    0.03   -0.03   -0.08    0.00    0.00       0.37   -0.10   -0.28
#  33    0.12   -0.37    0.06   -0.10   -0.13    0.00    0.00      -0.43   -0.22   -0.28
#  34   -0.08   -1.01    0.73   -0.62   -0.17    0.00    0.00      -1.14   -1.04   -0.28
#  35    1.44   -0.75    0.63   -0.54   -0.11    0.00    0.00       0.67   -1.36   -0.27

@<TRIPOS>MOLECULE
       AVX17377_0       100
   35    38     0     0     0



@<TRIPOS>ATOM
      1 O1         14.0231   -23.0117    10.6588 O.co2      1          -0.6814
      2 C1         15.1069   -23.2788    11.1595 C.2        1           0.5222
      3 O2         15.5726   -24.4044    11.0461 O.co2      1          -0.6669
      4 C2         15.8534   -22.2441    11.8933 C.ar       1          -0.1169
      5 C3         15.6643   -22.0839    13.2726 C.ar       1           0.0796
      6 O3         14.8649   -22.7406    14.1577 O.3        1          -0.2761
      7 C4         15.3928   -22.4266    15.4601 C.3        1           0.2050
      8 O4         16.0211   -21.1444    15.2740 O.3        1          -0.3173
      9 C5         16.3763   -21.1015    13.9564 C.ar       1           0.0027
     10 C6         17.2655   -20.2904    13.2719 C.ar       1          -0.0989
     11 C7         17.4525   -20.4488    11.9083 C.ar       1          -0.1229
     12 C8         16.7598   -21.4187    11.2184 C.ar       1          -0.0587
     13 C9         16.9745   -21.5881     9.7364 C.3        1           0.1724
     14 N1         17.9636   -20.6126     9.2715 N.am       1          -0.5493
     15 C10        17.6528   -19.3796     8.8373 C.2        1           0.5197
     16 O5         16.5412   -18.8999     8.7657 O.2        1          -0.4955
     17 C11        18.9511   -18.7016     8.4543 C.3        1          -0.1133
     18 C12        20.0082   -19.7425     8.7429 C.ar       1          -0.1511
     19 C13        21.3785   -19.7476     8.6095 C.ar       1          -0.0686
     20 C14        22.1021   -20.8734     8.9620 C.ar       1          -0.1498
     21 C15        21.4451   -21.9894     9.4473 C.ar       1          -0.0840
     22 C16        20.0723   -21.9872     9.5814 C.ar       1          -0.1346
     23 C17        19.3373   -20.8551     9.2346 C.ar       1           0.1577
     24 H1         14.5886   -22.3564    16.1925 H          1           0.1248
     25 H2         16.1267   -23.1721    15.7659 H          1           0.0764
     26 H3         17.8164   -19.5292    13.8043 H          1           0.1265
     27 H4         18.1481   -19.8104    11.3842 H          1           0.1217
     28 H5         17.3360   -22.5964     9.5346 H          1           0.1149
     29 H6         16.0323   -21.4283     9.2122 H          1           0.1169
     30 H7         18.9489   -18.4429     7.3954 H          1           0.1196
     31 H8         19.1129   -17.8135     9.0652 H          1           0.1190
     32 H9         21.8880   -18.8743     8.2300 H          1           0.1247
     33 H10        23.1771   -20.8805     8.8582 H          1           0.1250
     34 H11        22.0100   -22.8679     9.7223 H          1           0.1276
     35 H12        19.5664   -22.8627     9.9607 H          1           0.1288
@<TRIPOS>BOND
     1    1    2 1
     2    2    3 2
     3    2    4 1
     4    4   12 ar
     5    4    5 ar
     6    5    9 ar
     7    5    6 1
     8    6    7 1
     9    7    8 1
    10    7   24 1
    11    7   25 1
    12    8    9 1
    13    9   10 ar
    14   10   11 ar
    15   10   26 1
    16   11   12 ar
    17   11   27 1
    18   12   13 1
    19   13   14 1
    20   13   28 1
    21   13   29 1
    22   14   23 1
    23   14   15 am
    24   15   16 2
    25   15   17 1
    26   17   18 1
    27   17   30 1
    28   17   31 1
    29   18   23 ar
    30   18   19 ar
    31   19   20 ar
    32   19   32 1
    33   20   21 ar
    34   20   33 1
    35   21   22 ar
    36   21   34 1
    37   22   23 ar
    38   22   35 1
