AVX17287_0, 3
##########                 Name:           AVX17287_0
##########          Protonation:                  100
##########               SMILES:   c1ccc2c(c1)c(c[nH]2)Cc3ccc4c(c3C(=O)[O-])OCO4
##########            Long Name:   5-(1H-indol-3-ylmethyl)-1,3-benzodioxole-4-carboxylate
##########          FlexRecCode: 1
##########               Number:                  341
##########   Ligand Source File: /raid1/people/rgc/Examples/sampl4/screening/ligands/build_1//sampl4-hivint-00000
##########           GlobalRank: 10
##########                 Rank:                    1
##########               Setnum:                   25
##########             Matchnum:                17197
##########                Cloud:                    1
##########        Electrostatic:           -55.493488
##########        Van der Waals:           -16.740530
##########  Ligand Polar Desolv:            25.549143
########## Ligand Apolar Desolv:            -2.346632
##########      Internal Energy:             0.000000
##########      Receptor Energy: 0.0
########## Receptor Desolvation:             0.000000
########## Receptor Hydrophobic:             0.000000
##########         Total Energy: -49.03
##########        Ligand Charge:            -1.000000
##########            Arbitrary:    +999.9990
##########     heavy atom count:   22
##########           pose count:    1
##########        Ligand Energy:             0.000000
# num electro vdwattr vdwrepu polsolv apolsol rdesolv rhydroe totalscore fullpol fullapo
#   1  -37.22   -3.13    3.89   13.29   -0.17    0.00    0.00     -23.34   31.25   -0.41
#   2   26.23   -2.09    1.22   -7.69   -0.05    0.00    0.00      17.63  -19.69   -0.13
#   3  -31.62   -2.68    2.98   12.77   -0.16    0.00    0.00     -18.71   29.63   -0.37
#   4   -3.74   -1.83    1.21    1.85   -0.13    0.00    0.00      -2.64    5.67   -0.40
#   5    1.80   -1.87    0.63    0.27   -0.14    0.00    0.00       0.69    0.64   -0.33
#   6  -13.84   -2.98    2.49    5.49    0.26    0.00    0.00      -8.58    9.95    0.48
#   7    8.02   -2.11    1.07   -1.83    0.01    0.00    0.00       5.17   -3.11    0.02
#   8   -8.48   -2.62    1.61    2.56    0.27    0.00    0.00      -6.67    5.02    0.52
#   9    0.34   -1.67    0.50   -0.13   -0.14    0.00    0.00      -1.09   -0.30   -0.33
#  10   -1.78   -1.25    0.35    0.25   -0.15    0.00    0.00      -2.57    0.80   -0.47
#  11   -2.08   -0.76    0.10    0.24   -0.11    0.00    0.00      -2.60    0.98   -0.44
#  12   -1.57   -1.24    0.92    0.35   -0.09    0.00    0.00      -1.62    1.42   -0.36
#  13   -0.01   -0.58    0.35   -0.01   -0.05    0.00    0.00      -0.30   -0.07   -0.24
#  14   -3.04   -0.73    0.04    1.14   -0.11    0.00    0.00      -2.68    4.13   -0.39
#  15    0.98   -1.71    0.37   -0.22   -0.33    0.00    0.00      -0.90   -0.62   -0.94
#  16   -3.36   -4.47    3.66    4.78    0.50    0.00    0.00       1.11   11.14    1.17
#  17    0.90   -2.36    1.21   -0.35   -0.31    0.00    0.00      -0.90   -0.89   -0.78
#  18   -1.10   -2.56    1.35    0.75   -0.21    0.00    0.00      -1.78    1.68   -0.48
#  19   -1.31   -1.72    0.55    0.26   -0.20    0.00    0.00      -2.42    0.60   -0.47
#  20   -2.55   -1.28    0.24    0.37   -0.17    0.00    0.00      -3.40    1.00   -0.47
#  21   -1.38   -0.79    0.06    0.29   -0.14    0.00    0.00      -1.94    1.01   -0.47
#  22   -1.53   -0.91    0.12    0.75   -0.13    0.00    0.00      -1.70    2.47   -0.44
#  23    4.24   -0.94    1.47   -1.50   -0.18    0.00    0.00       3.10   -2.36   -0.28
#  24    3.41   -1.04    1.64   -1.05   -0.17    0.00    0.00       2.78   -1.70   -0.28
#  25    0.65   -0.31    0.11   -0.46   -0.06    0.00    0.00      -0.08   -2.08   -0.28
#  26    1.44   -0.09    0.00   -0.18   -0.02    0.00    0.00       1.15   -2.20   -0.27
#  27    2.44   -0.29    0.39   -0.38   -0.04    0.00    0.00       2.11   -2.56   -0.28
#  28    1.58   -0.11    0.03   -0.02   -0.02    0.00    0.00       1.46   -0.18   -0.24
#  29    1.57   -0.37    0.09   -0.95   -0.07    0.00    0.00       0.27   -3.24   -0.23
#  30   -0.77   -0.21    0.05   -3.67    0.32    0.00    0.00      -4.29   -6.84    0.60
#  31    0.42   -0.68    0.28   -0.69   -0.14    0.00    0.00      -0.81   -1.42   -0.28
#  32    1.17   -0.51    0.53   -0.30   -0.10    0.00    0.00       0.80   -0.88   -0.28
#  33    1.94   -0.38    0.13   -0.28   -0.09    0.00    0.00       1.32   -0.87   -0.28
#  34    2.74   -0.12    0.01   -0.18   -0.03    0.00    0.00       2.42   -1.38   -0.27

@<TRIPOS>MOLECULE
       AVX17287_0       100
   34    37     0     0     0



@<TRIPOS>ATOM
      1 O1         13.6086   -21.3328    10.1705 O.co2      1          -0.6818
      2 C1         14.3782   -22.2680    10.3427 C.2        1           0.5374
      3 O2         15.2185   -22.5330     9.4940 O.co2      1          -0.6769
      4 C2         14.2971   -23.0705    11.5737 C.ar       1          -0.0863
      5 C3         13.4801   -24.2082    11.6205 C.ar       1           0.0447
      6 O3         12.6723   -24.7800    10.6855 O.3        1          -0.3001
      7 C4         12.4233   -26.1173    11.1575 C.3        1           0.2108
      8 O4         12.5579   -26.0058    12.5867 O.3        1          -0.3177
      9 C5         13.4115   -24.9598    12.7908 C.ar       1           0.0130
     10 C6         14.1492   -24.5808    13.8995 C.ar       1          -0.1155
     11 C7         14.9570   -23.4563    13.8532 C.ar       1          -0.1123
     12 C8         15.0399   -22.7050    12.7020 C.ar       1          -0.0493
     13 C9         15.9264   -21.4870    12.6588 C.3        1          -0.0004
     14 C10        17.3047   -21.8851    12.1975 C.2        1          -0.1731
     15 C11        18.1255   -22.7614    12.7979 C.2        1           0.0925
     16 N1         19.2921   -22.8676    12.0908 N.pl3      1          -0.5958
     17 C12        19.2493   -22.0413    10.9903 C.ar       1           0.0883
     18 C13        20.1453   -21.7692     9.9614 C.ar       1          -0.1308
     19 C14        19.8034   -20.8686     8.9767 C.ar       1          -0.1117
     20 C15        18.5718   -20.2282     8.9996 C.ar       1          -0.1546
     21 C16        17.6769   -20.4804    10.0004 C.ar       1          -0.0700
     22 C17        18.0004   -21.3941    11.0056 C.ar       1          -0.0906
     23 H1         11.4154   -26.4359    10.8912 H          1           0.1234
     24 H2         13.1634   -26.8094    10.7558 H          1           0.0764
     25 H3         14.0943   -25.1653    14.8059 H          1           0.1252
     26 H4         15.5280   -23.1693    14.7238 H          1           0.1290
     27 H5         15.5078   -20.7574    11.9655 H          1           0.0752
     28 H6         15.9891   -21.0478    13.6543 H          1           0.0899
     29 H7         17.8989   -23.3019    13.7051 H          1           0.1838
     30 H8         20.0382   -23.4398    12.3293 H          1           0.4131
     31 H9         21.1059   -22.2620     9.9350 H          1           0.1137
     32 H10        20.5006   -20.6584     8.1790 H          1           0.1176
     33 H11        18.3195   -19.5246     8.2201 H          1           0.1158
     34 H12        16.7207   -19.9785    10.0117 H          1           0.1175
@<TRIPOS>BOND
     1    1    2 1
     2    2    3 2
     3    2    4 1
     4    4   12 ar
     5    4    5 ar
     6    5    9 ar
     7    5    6 1
     8    6    7 1
     9    7    8 1
    10    7   23 1
    11    7   24 1
    12    8    9 1
    13    9   10 ar
    14   10   11 ar
    15   10   25 1
    16   11   12 ar
    17   11   26 1
    18   12   13 1
    19   13   14 1
    20   13   27 1
    21   13   28 1
    22   14   22 1
    23   14   15 2
    24   15   16 1
    25   15   29 1
    26   16   17 1
    27   16   30 1
    28   17   22 ar
    29   17   18 ar
    30   18   19 ar
    31   18   31 1
    32   19   20 ar
    33   19   32 1
    34   20   21 ar
    35   20   33 1
    36   21   22 ar
    37   21   34 1
