AVX17557_3, 3
##########                 Name:           AVX17557_0
##########          Protonation:                  100
##########               SMILES:   c1ccc2c(c1)C[C@@H]([C@H]2Cc3ccc4c(c3C(=O)[O-])OCO4)NC(=O)CCCCC[NH3+]
##########            Long Name:   -(6-azaniumylhexanoylamino)indan-1-yl]methyl]-1,3-benzodioxole-4-carboxylate
##########          FlexRecCode: 1
##########               Number:                  695
##########   Ligand Source File: /raid1/people/rgc/Examples/sampl4/screening/ligands/build_1//sampl4-hivint-00000
##########           GlobalRank: 101
##########                 Rank:                    1
##########               Setnum:                    2
##########             Matchnum:                17146
##########                Cloud:                    1
##########        Electrostatic:           -26.618008
##########        Van der Waals:           -17.384954
##########  Ligand Polar Desolv:            12.296402
########## Ligand Apolar Desolv:            -3.262552
##########      Internal Energy:             0.000000
##########      Receptor Energy: 0.0
########## Receptor Desolvation:             0.000000
########## Receptor Hydrophobic:             0.000000
##########         Total Energy: -34.97
##########        Ligand Charge:             0.000000
##########            Arbitrary:    +999.9990
##########     heavy atom count:   31
##########           pose count:    1
##########        Ligand Energy:             0.000000
# num electro vdwattr vdwrepu polsolv apolsol rdesolv rhydroe totalscore fullpol fullapo
#   1   -2.48   -0.14    0.01   -1.43    0.06    0.00    0.00      -3.98  -19.22    0.86
#   2    1.30    0.00    0.00    0.65    0.02    0.00    0.00       1.98   15.90    0.60
#   3    2.58    0.00    0.00    0.62    0.02    0.00    0.00       3.23   14.44    0.58
#   4    1.95    0.00    0.00    0.39    0.02    0.00    0.00       2.35   14.90    0.58
#   5   -0.01   -0.08    0.00    0.04   -0.03    0.00    0.00      -0.08    0.81   -0.49
#   6   -0.13   -0.24    0.04   -0.33   -0.03    0.00    0.00      -0.69   -2.84   -0.24
#   7   -0.10   -0.17    0.01   -0.13   -0.02    0.00    0.00      -0.42   -1.33   -0.22
#   8   -0.08   -0.38    0.08   -0.06   -0.03    0.00    0.00      -0.47   -0.36   -0.19
#   9   -0.11   -0.19    0.01    0.00   -0.03    0.00    0.00      -0.32   -0.01   -0.24
#  10    1.01   -0.45    0.03   -0.59   -0.11    0.00    0.00      -0.10   -3.62   -0.66
#  11   -0.84   -0.48    0.05    1.14    0.06    0.00    0.00      -0.07    6.98    0.37
#  12   -2.71   -0.79    0.13    1.44    0.47    0.00    0.00      -1.46    6.30    2.05
#  13    0.95   -0.79    0.20   -0.52   -0.09    0.00    0.00      -0.26   -1.66   -0.30
#  14   -0.59   -1.55    0.72    0.14   -0.11    0.00    0.00      -1.39    0.34   -0.27
#  15   -0.82   -1.63    0.47    0.17   -0.18    0.00    0.00      -1.98    0.40   -0.43
#  16   -0.60   -2.07    0.78    0.04   -0.26    0.00    0.00      -2.11    0.08   -0.47
#  17   -0.25   -2.73    0.85   -0.01   -0.27    0.00    0.00      -2.41   -0.01   -0.47
#  18   -0.42   -3.94    2.50    0.19   -0.25    0.00    0.00      -1.92    0.36   -0.47
#  19   -0.76   -2.89    3.78    0.40   -0.17    0.00    0.00       0.37    0.96   -0.40
#  20   -0.80   -1.73    1.36    0.34   -0.13    0.00    0.00      -0.96    0.93   -0.35
#  21   -0.70   -0.61    0.12    0.17   -0.04    0.00    0.00      -1.06    0.60   -0.15
#  22   -1.18   -0.93    0.35    0.30   -0.06    0.00    0.00      -1.52    0.90   -0.19
#  23   -1.61   -1.02    0.14    0.32   -0.11    0.00    0.00      -2.27    0.97   -0.32
#  24   -2.83   -1.64    0.29    0.29   -0.17    0.00    0.00      -4.06    0.64   -0.38
#  25   -3.44   -2.01    0.70    0.25   -0.21    0.00    0.00      -4.71    0.56   -0.47
#  26    0.63   -1.40    0.47   -0.10   -0.12    0.00    0.00      -0.51   -0.29   -0.33
#  27   -9.13   -1.21    0.23    1.39    0.20    0.00    0.00      -8.53    3.65    0.52
#  28    5.27   -0.61    0.06   -0.68    0.01    0.00    0.00       4.05   -2.21    0.02
#  29  -11.66   -1.60    2.12    1.97    0.12    0.00    0.00      -9.05    7.77    0.48
#  30    1.55   -0.95    0.22    0.09   -0.09    0.00    0.00       0.82    0.34   -0.33
#  31   -2.63   -0.76    0.10    1.13   -0.11    0.00    0.00      -2.27    4.23   -0.40
#  32   14.78   -0.97    0.72   -3.47   -0.02    0.00    0.00      11.04  -16.68   -0.11
#  33  -10.98   -0.42    0.07    4.18   -0.06    0.00    0.00      -7.21   27.46   -0.42
#  34  -22.54   -1.55    1.61    6.51   -0.10    0.00    0.00     -16.07   24.74   -0.39
#  35    0.14   -0.01    0.00    0.05    0.00    0.00    0.00       0.18    3.90   -0.28
#  36    0.14   -0.02    0.00    0.06   -0.01    0.00    0.00       0.18    3.29   -0.28
#  37    0.07   -0.07    0.01    0.09   -0.02    0.00    0.00       0.08    1.22   -0.28
#  38    0.09   -0.19    0.09    0.25   -0.04    0.00    0.00       0.21    1.80   -0.28
#  39    0.20   -0.04    0.00    0.07   -0.01    0.00    0.00       0.21    1.33   -0.28
#  40    0.06   -0.02    0.00    0.01   -0.01    0.00    0.00       0.05    0.72   -0.28
#  41    0.05   -0.10    0.01   -0.02   -0.03    0.00    0.00      -0.09   -0.16   -0.28
#  42    0.06   -0.38    0.36    0.02   -0.06    0.00    0.00       0.01    0.12   -0.28
#  43    0.07   -0.03    0.00    0.02   -0.01    0.00    0.00       0.05    0.68   -0.28
#  44    0.07   -0.06    0.00    0.00   -0.01    0.00    0.00       0.00   -0.02   -0.28
#  45    1.55   -0.02    0.00   -0.54    0.10    0.00    0.00       1.10   -3.02    0.58
#  46    0.52   -0.39    0.29   -0.19   -0.06    0.00    0.00       0.18   -0.83   -0.25
#  47    0.75   -1.09    1.42   -0.22   -0.13    0.00    0.00       0.73   -0.46   -0.28
#  48    0.37   -0.55    0.34   -0.13   -0.09    0.00    0.00      -0.06   -0.39   -0.28
#  49    0.55   -0.41    0.09    0.10   -0.11    0.00    0.00       0.22    0.24   -0.28
#  50   -0.39   -0.61    0.17    0.25   -0.17    0.00    0.00      -0.76    0.42   -0.28
#  51   -0.03   -1.69    3.43   -0.12   -0.16    0.00    0.00       1.43   -0.21   -0.28
#  52    1.16   -0.43    0.23   -0.24   -0.08    0.00    0.00       0.63   -0.78   -0.27
#  53    1.20   -0.17    0.07   -0.06   -0.03    0.00    0.00       1.01   -0.42   -0.23
#  54    1.83   -0.22    0.04   -0.03   -0.05    0.00    0.00       1.57   -0.17   -0.25
#  55    1.70   -0.87    2.14   -0.53   -0.10    0.00    0.00       2.35   -1.44   -0.28
#  56    2.94   -0.46    0.12   -0.53   -0.13    0.00    0.00       1.93   -1.13   -0.28
#  57    3.45   -0.60    0.26   -0.44   -0.13    0.00    0.00       2.54   -0.97   -0.28
#  58    3.02   -0.19    0.02   -0.28   -0.06    0.00    0.00       2.51   -1.32   -0.28
#  59    1.18   -0.14    0.01   -0.17   -0.04    0.00    0.00       0.83   -1.06   -0.28

@<TRIPOS>MOLECULE
       AVX17557_0       100
   59    62     0     0     0



@<TRIPOS>ATOM
      1 N1         16.2931   -17.3269    13.7312 N.4        1          -0.6384
      2 H1         15.3198   -17.4289    13.9768 H          1           0.4364
      3 H2         16.7383   -18.2322    13.7376 H          1           0.4357
      4 H3         16.3668   -16.9222    12.8098 H          1           0.4346
      5 C1         16.9545   -16.4488    14.7056 C.3        1          -0.0099
      6 C2         18.4304   -16.2941    14.3332 C.3        1          -0.1525
      7 C3         18.5421   -15.6808    12.9359 C.3        1          -0.1194
      8 C4         20.0180   -15.5260    12.5636 C.3        1          -0.1043
      9 C5         20.1298   -14.9127    11.1663 C.3        1          -0.1438
     10 C6         19.4513   -15.8134    10.1665 C.2        1           0.5137
     11 O1         18.5195   -15.3981     9.5107 O.2        1          -0.5468
     12 N2         19.8800   -17.0805    10.0013 N.am       1          -0.7103
     13 C7         19.2205   -17.9561     9.0294 C.3        1           0.1501
     14 C8         20.2379   -18.5062     8.0075 C.3        1          -0.0874
     15 C9         20.7127   -19.8204     8.5895 C.ar       1          -0.0985
     16 C10        21.8267   -20.5856     8.2869 C.ar       1          -0.1119
     17 C11        22.0606   -21.7689     8.9593 C.ar       1          -0.1229
     18 C12        21.1802   -22.1920     9.9380 C.ar       1          -0.1210
     19 C13        20.0689   -21.4303    10.2411 C.ar       1          -0.0894
     20 C14        19.8327   -20.2434     9.5678 C.ar       1          -0.0781
     21 C15        18.7061   -19.2423     9.7101 C.3        1          -0.0588
     22 C16        17.4500   -19.7523     9.0012 C.3        1          -0.0569
     23 C17        16.9944   -21.0353     9.6474 C.ar       1          -0.0607
     24 C18        17.4702   -22.2439     9.1898 C.ar       1          -0.1065
     25 C19        17.0569   -23.4280     9.7784 C.ar       1          -0.1161
     26 C20        16.1606   -23.4106    10.8336 C.ar       1           0.0197
     27 O2         15.6096   -24.4203    11.5694 O.3        1          -0.3157
     28 C21        15.0960   -23.7915    12.7588 C.3        1           0.2110
     29 O3         14.8142   -22.4437    12.3381 O.3        1          -0.2995
     30 C22        15.6698   -22.1969    11.3083 C.ar       1           0.0451
     31 C23        16.0921   -20.9988    10.7163 C.ar       1          -0.0867
     32 C24        15.5850   -19.7094    11.2128 C.2        1           0.5370
     33 O4         16.1838   -19.1176    12.1005 O.co2      1          -0.6783
     34 O5         14.5649   -19.2295    10.7379 O.co2      1          -0.6814
     35 H4         16.4735   -15.4708    14.6988 H          1           0.1328
     36 H5         16.8750   -16.8859    15.7012 H          1           0.1340
     37 H6         18.9212   -15.6426    15.0562 H          1           0.0897
     38 H7         18.9114   -17.2721    14.3403 H          1           0.0879
     39 H8         18.0514   -16.3323    12.2129 H          1           0.0739
     40 H9         18.0610   -14.7027    12.9289 H          1           0.0765
     41 H10        20.5088   -14.8746    13.2866 H          1           0.0761
     42 H11        20.4990   -16.5041    12.5705 H          1           0.0728
     43 H12        19.6488   -13.9346    11.1592 H          1           0.0923
     44 H13        21.1812   -14.8024    10.9009 H          1           0.0977
     45 H14        20.6252   -17.4126    10.5258 H          1           0.4028
     46 H15        18.4073   -17.4317     8.5273 H          1           0.1080
     47 H16        19.7549   -18.6716     7.0444 H          1           0.0893
     48 H17        21.0749   -17.8166     7.8983 H          1           0.0738
     49 H18        22.5146   -20.2560     7.5223 H          1           0.1141
     50 H19        22.9300   -22.3636     8.7208 H          1           0.1190
     51 H20        21.3614   -23.1173    10.4645 H          1           0.1205
     52 H21        19.3817   -21.7614    11.0056 H          1           0.1200
     53 H22        18.4973   -19.0552    10.7635 H          1           0.1105
     54 H23        16.6600   -19.0055     9.0796 H          1           0.0903
     55 H24        17.6745   -19.9346     7.9502 H          1           0.0722
     56 H25        18.1693   -22.2688     8.3670 H          1           0.1283
     57 H26        17.4358   -24.3704     9.4117 H          1           0.1266
     58 H27        14.1843   -24.2878    13.0911 H          1           0.1256
     59 H28        15.8463   -23.7970    13.5493 H          1           0.0775
@<TRIPOS>BOND
     1    1    2 1
     2    1    3 1
     3    1    4 1
     4    1    5 1
     5    5    6 1
     6    5   35 1
     7    5   36 1
     8    6    7 1
     9    6   37 1
    10    6   38 1
    11    7    8 1
    12    7   39 1
    13    7   40 1
    14    8    9 1
    15    8   41 1
    16    8   42 1
    17    9   10 1
    18    9   43 1
    19    9   44 1
    20   10   11 2
    21   10   12 am
    22   12   13 1
    23   12   45 1
    24   13   21 1
    25   13   14 1
    26   13   46 1
    27   14   15 1
    28   14   47 1
    29   14   48 1
    30   15   20 ar
    31   15   16 ar
    32   16   17 ar
    33   16   49 1
    34   17   18 ar
    35   17   50 1
    36   18   19 ar
    37   18   51 1
    38   19   20 ar
    39   19   52 1
    40   20   21 1
    41   21   22 1
    42   21   53 1
    43   22   23 1
    44   22   54 1
    45   22   55 1
    46   23   31 ar
    47   23   24 ar
    48   24   25 ar
    49   24   56 1
    50   25   26 ar
    51   25   57 1
    52   26   30 ar
    53   26   27 1
    54   27   28 1
    55   28   29 1
    56   28   58 1
    57   28   59 1
    58   29   30 1
    59   30   31 ar
    60   31   32 1
    61   32   33 1
    62   32   34 2
