AVX38743_5, 3
##########                 Name:           AVX38743_0
##########          Protonation:                  100
##########               SMILES:   c1ccc\2c(c1)C[C@H](/C2=C/c3ccc4c(c3C(=O)[O-])O[C@@H](CO4)CCC(=O)[O-])O
##########            Long Name:   ]methyl]-3-(3-oxido-3-oxo-propyl)-2,3-dihydro-1,4-benzodioxine-5-carboxylate
##########          FlexRecCode: 1
##########               Number:                  628
##########   Ligand Source File: /raid1/people/rgc/Examples/sampl4/screening/ligands/build_1//sampl4-hivint-00000
##########           GlobalRank: 99
##########                 Rank:                    1
##########               Setnum:                   40
##########             Matchnum:                20826
##########                Cloud:                    1
##########        Electrostatic:           -51.288876
##########        Van der Waals:           -17.984667
##########  Ligand Polar Desolv:            35.571301
########## Ligand Apolar Desolv:            -1.288268
##########      Internal Energy:             0.000000
##########      Receptor Energy: 0.0
########## Receptor Desolvation:             0.000000
########## Receptor Hydrophobic:             0.000000
##########         Total Energy: -34.99
##########        Ligand Charge:            -2.000000
##########            Arbitrary:    +999.9990
##########     heavy atom count:   29
##########           pose count:    1
##########        Ligand Energy:             0.000000
# num electro vdwattr vdwrepu polsolv apolsol rdesolv rhydroe totalscore fullpol fullapo
#   1   -5.68   -3.07    2.18    4.33    0.65    0.00    0.00      -1.59   11.37    1.70
#   2    1.98   -0.88    0.15   -0.91   -0.06    0.00    0.00       0.28   -3.02   -0.19
#   3   -0.57   -0.33    0.01    0.21   -0.05    0.00    0.00      -0.72    1.14   -0.28
#   4   -0.71   -0.24    0.00    0.13   -0.04    0.00    0.00      -0.85    1.47   -0.44
#   5   -0.36   -0.15    0.00    0.08   -0.03    0.00    0.00      -0.46    1.29   -0.47
#   6   -0.42   -0.17    0.01    0.08   -0.04    0.00    0.00      -0.55    1.00   -0.47
#   7   -0.72   -0.28    0.02    0.31   -0.06    0.00    0.00      -0.73    2.62   -0.47
#   8   -1.35   -0.39    0.03    0.58   -0.06    0.00    0.00      -1.17    3.84   -0.38
#   9   -0.28   -0.36    0.01    0.51   -0.06    0.00    0.00      -0.17    3.53   -0.40
#  10   -3.06   -0.73    0.06    0.60   -0.10    0.00    0.00      -3.23    2.40   -0.40
#  11    1.22   -1.16    0.30    1.21   -0.11    0.00    0.00       1.46    3.93   -0.36
#  12   -1.38   -0.71    0.04    0.10   -0.08    0.00    0.00      -2.04    0.35   -0.30
#  13   -1.92   -0.89    0.15    0.53   -0.08    0.00    0.00      -2.21    1.85   -0.28
#  14   -1.58   -1.42    0.29    0.37   -0.15    0.00    0.00      -2.50    1.12   -0.46
#  15    0.43   -1.17    0.14   -0.29   -0.10    0.00    0.00      -0.99   -0.86   -0.30
#  16   -2.67   -2.37    1.00    2.65    0.26    0.00    0.00      -1.13    6.89    0.68
#  17    0.15   -2.24    1.45   -0.53   -0.05    0.00    0.00      -1.21   -1.31   -0.12
#  18    0.52   -0.97    0.35   -0.30   -0.04    0.00    0.00      -0.45   -0.94   -0.12
#  19   -0.78   -0.42    0.03    0.43   -0.04    0.00    0.00      -0.79    1.85   -0.18
#  20   -0.42   -0.45    0.04    1.39   -0.05    0.00    0.00       0.50    6.58   -0.24
#  21    1.03   -0.26    0.01   -2.20   -0.02    0.00    0.00      -1.44  -22.38   -0.16
#  22   -1.18   -0.14    0.00    2.00   -0.02    0.00    0.00       0.66   35.05   -0.41
#  23   -0.73   -0.24    0.01    3.91   -0.04    0.00    0.00       2.90   40.64   -0.43
#  24   -6.61   -0.82    0.07    4.87    0.08    0.00    0.00      -2.42   14.78    0.24
#  25    2.33   -0.82    0.06   -0.46   -0.09    0.00    0.00       1.02   -1.50   -0.30
#  26   -4.00   -0.95    0.16    2.95   -0.12    0.00    0.00      -1.96   10.03   -0.41
#  27   25.20   -2.04    1.29   -9.58   -0.07    0.00    0.00      14.81  -24.79   -0.17
#  28  -35.03   -2.51    1.64   15.38   -0.14    0.00    0.00     -20.66   37.60   -0.34
#  29  -31.66   -1.80    0.41   19.16   -0.26    0.00    0.00     -14.14   43.17   -0.59
#  30    1.77   -0.13    0.02   -2.39    0.55    0.00    0.00      -0.17   -5.38    1.24
#  31    1.09   -0.43    0.12   -0.42   -0.09    0.00    0.00       0.28   -1.35   -0.28
#  32    0.20   -0.11    0.01   -0.22   -0.03    0.00    0.00      -0.14   -1.95   -0.27
#  33    0.25   -0.08    0.00   -0.13   -0.02    0.00    0.00       0.02   -1.83   -0.28
#  34    0.17   -0.02    0.00   -0.04   -0.01    0.00    0.00       0.10   -2.11   -0.28
#  35    0.16   -0.02    0.00   -0.06   -0.01    0.00    0.00       0.08   -2.16   -0.28
#  36    0.59   -0.05    0.00   -0.13   -0.01    0.00    0.00       0.40   -2.58   -0.28
#  37    2.28   -0.08    0.01   -0.17   -0.01    0.00    0.00       2.02   -2.02   -0.15
#  38    5.14   -0.70    1.32   -0.91   -0.08    0.00    0.00       4.76   -2.86   -0.24
#  39    1.61   -0.25    0.14   -0.79   -0.05    0.00    0.00       0.67   -4.48   -0.26
#  40    0.69   -0.67    0.44   -1.68   -0.10    0.00    0.00      -1.32   -4.52   -0.28
#  41    0.84   -0.89    0.72   -1.99   -0.12    0.00    0.00      -1.44   -4.55   -0.28
#  42   -0.18   -1.28    2.21   -0.85   -0.12    0.00    0.00      -0.23   -2.02   -0.28
#  43    0.59   -0.69    1.02   -0.78   -0.08    0.00    0.00       0.06   -2.84   -0.28
#  44    0.72   -0.10    0.00   -0.44   -0.03    0.00    0.00       0.15   -4.70   -0.28
#  45    1.10   -0.12    0.02   -0.12   -0.03    0.00    0.00       0.84   -1.08   -0.28
#  46    0.00   -0.19    0.03    0.00   -0.04    0.00    0.00      -0.20    0.01   -0.27
#  47   -0.04   -0.21    0.02   -0.80   -0.06    0.00    0.00      -1.09   -3.97   -0.28

@<TRIPOS>MOLECULE
       AVX38743_0       100
   47    50     0     0     0



@<TRIPOS>ATOM
      1 O1         17.3482   -17.7438     7.8100 O.3        1          -0.5558
      2 C1         16.3115   -17.6586     8.7897 C.3        1           0.1522
      3 C2         16.4756   -16.3834     9.6281 C.3        1          -0.1035
      4 C3         16.6764   -16.8357    11.0545 C.ar       1          -0.1076
      5 C4         16.8720   -16.1018    12.2094 C.ar       1          -0.1122
      6 C5         17.0353   -16.7419    13.4241 C.ar       1          -0.1356
      7 C6         17.0045   -18.1238    13.4921 C.ar       1          -0.1195
      8 C7         16.8102   -18.8685    12.3501 C.ar       1          -0.1126
      9 C8         16.6435   -18.2280    11.1129 C.ar       1          -0.0223
     10 C9         16.4249   -18.7992     9.7721 C.2        1          -0.1616
     11 C10        16.3412   -20.1084     9.4753 C.2        1           0.0442
     12 C11        16.7113   -21.1150    10.4804 C.ar       1          -0.0524
     13 C12        18.0016   -21.1372    11.0092 C.ar       1          -0.1153
     14 C13        18.3488   -22.0816    11.9535 C.ar       1          -0.1277
     15 C14        17.4232   -23.0202    12.3897 C.ar       1           0.0276
     16 O2         17.7911   -23.9386    13.3252 O.3        1          -0.3162
     17 C15        16.9595   -25.0961    13.4518 C.3        1           0.0263
     18 C16        15.5065   -24.6116    13.5241 C.3        1           0.0403
     19 C17        15.3383   -23.6469    14.6997 C.3        1          -0.0756
     20 C18        15.2027   -24.4444    15.9984 C.3        1          -0.1832
     21 C19        15.0370   -23.4942    17.1563 C.2        1           0.4955
     22 O3         13.9221   -23.1382    17.4980 O.co2      1          -0.7096
     23 O4         16.0179   -23.0814    17.7513 O.co2      1          -0.7104
     24 O5         15.2205   -23.9356    12.2956 O.3        1          -0.2435
     25 C20        16.1306   -23.0195    11.8764 C.ar       1           0.0881
     26 C21        15.7599   -22.0630    10.9216 C.ar       1          -0.1149
     27 C22        14.3959   -22.0496    10.3791 C.2        1           0.5182
     28 O6         13.5760   -22.8725    10.7644 O.co2      1          -0.6900
     29 O7         14.0786   -21.2154     9.5415 O.co2      1          -0.6448
     30 H1         17.3261   -17.0363     7.1513 H          1           0.3688
     31 H2         15.3343   -17.6717     8.3070 H          1           0.0713
     32 H3         17.3452   -15.8211     9.2878 H          1           0.0815
     33 H4         15.5788   -15.7682     9.5532 H          1           0.0776
     34 H5         16.8975   -15.0231    12.1628 H          1           0.1116
     35 H6         17.1875   -16.1618    14.3223 H          1           0.1151
     36 H7         17.1329   -18.6194    14.4430 H          1           0.1182
     37 H8         16.7868   -19.9468    12.4068 H          1           0.1404
     38 H9         16.0019   -20.4200     8.4985 H          1           0.1492
     39 H10        18.7315   -20.4133    10.6782 H          1           0.1243
     40 H11        19.3504   -22.0909    12.3570 H          1           0.1245
     41 H12        17.0912   -25.7432    12.5845 H          1           0.1146
     42 H13        17.2150   -25.6376    14.3627 H          1           0.0728
     43 H14        14.8376   -25.4635    13.6457 H          1           0.0728
     44 H15        16.2099   -22.9954    14.7627 H          1           0.0746
     45 H16        14.4434   -23.0431    14.5490 H          1           0.0715
     46 H17        14.3311   -25.0958    15.9354 H          1           0.0832
     47 H18        16.0976   -25.0482    16.1491 H          1           0.0499
@<TRIPOS>BOND
     1    1    2 1
     2    1   30 1
     3    2   10 1
     4    2    3 1
     5    2   31 1
     6    3    4 1
     7    3   32 1
     8    3   33 1
     9    4    9 ar
    10    4    5 ar
    11    5    6 ar
    12    5   34 1
    13    6    7 ar
    14    6   35 1
    15    7    8 ar
    16    7   36 1
    17    8    9 ar
    18    8   37 1
    19    9   10 1
    20   10   11 2
    21   11   12 1
    22   11   38 1
    23   12   26 ar
    24   12   13 ar
    25   13   14 ar
    26   13   39 1
    27   14   15 ar
    28   14   40 1
    29   15   25 ar
    30   15   16 1
    31   16   17 1
    32   17   18 1
    33   17   41 1
    34   17   42 1
    35   18   19 1
    36   18   24 1
    37   18   43 1
    38   19   20 1
    39   19   44 1
    40   19   45 1
    41   20   21 1
    42   20   46 1
    43   20   47 1
    44   21   22 1
    45   21   23 2
    46   24   25 1
    47   25   26 ar
    48   26   27 1
    49   27   28 1
    50   27   29 2
