AVX38742_3, 3
##########                 Name:           AVX38742_0
##########          Protonation:                  100
##########               SMILES:   c1ccc\2c(c1)C/C(=N/O)/C2=C\c3ccc4c(c3C(=O)[O-])OC[C@H](O4)CCC(=O)[O-]
##########            Long Name:   ]methyl]-2-(3-oxido-3-oxo-propyl)-2,3-dihydro-1,4-benzodioxine-5-carboxylate
##########          FlexRecCode: 1
##########               Number:                  475
##########   Ligand Source File: /raid1/people/rgc/Examples/sampl4/screening/ligands/build_1//sampl4-hivint-00000
##########           GlobalRank: 2
##########                 Rank:                    1
##########               Setnum:                    7
##########             Matchnum:                  186
##########                Cloud:                    1
##########        Electrostatic:           -55.738674
##########        Van der Waals:           -27.034252
##########  Ligand Polar Desolv:            30.977518
########## Ligand Apolar Desolv:            -4.046332
##########      Internal Energy:             0.000000
##########      Receptor Energy: 0.0
########## Receptor Desolvation:             0.000000
########## Receptor Hydrophobic:             0.000000
##########         Total Energy: -55.84
##########        Ligand Charge:            -2.000000
##########            Arbitrary:    +999.9990
##########     heavy atom count:   30
##########           pose count:    1
##########        Ligand Energy:             0.000000
# num electro vdwattr vdwrepu polsolv apolsol rdesolv rhydroe totalscore fullpol fullapo
#   1   -5.17   -0.57    0.10    2.65    0.07    0.00    0.00      -2.92   12.92    0.35
#   2   -6.01   -0.59    0.05    1.77    0.23    0.00    0.00      -4.55    8.30    1.06
#   3    3.50   -0.74    0.04   -1.00   -0.22    0.00    0.00       1.58   -3.44   -0.76
#   4   -0.28   -0.63    0.04    0.01   -0.09    0.00    0.00      -0.95    0.02   -0.29
#   5   -2.23   -1.87    0.47    0.54   -0.18    0.00    0.00      -3.28    1.30   -0.44
#   6   -1.54   -3.32    1.67    0.44   -0.24    0.00    0.00      -2.99    0.88   -0.47
#   7   -2.37   -4.04    1.82    0.41   -0.31    0.00    0.00      -4.49    0.63   -0.47
#   8   -2.79   -4.94    5.07    1.14   -0.32    0.00    0.00      -1.84    1.69   -0.47
#   9   -3.10   -4.56    4.29    1.66   -0.28    0.00    0.00      -2.00    2.81   -0.47
#  10   -0.36   -2.23    0.80    1.40   -0.20    0.00    0.00      -0.59    3.06   -0.43
#  11   -4.70   -1.17    0.11    1.20   -0.16    0.00    0.00      -4.71    2.90   -0.39
#  12    1.79   -1.78    0.61    1.10   -0.16    0.00    0.00       1.56    2.53   -0.36
#  13   -0.50   -1.95    1.85   -0.46   -0.08    0.00    0.00      -1.13   -1.30   -0.22
#  14   -1.57   -1.50    0.41    0.80   -0.11    0.00    0.00      -1.97    2.27   -0.32
#  15   -1.23   -1.53    0.46    0.56   -0.15    0.00    0.00      -1.90    1.77   -0.46
#  16    0.48   -1.31    0.23   -0.16   -0.09    0.00    0.00      -0.85   -0.54   -0.30
#  17   -1.38   -0.84    0.08    2.54    0.16    0.00    0.00       0.57    9.58    0.62
#  18    0.11   -0.83    0.14   -0.64   -0.03    0.00    0.00      -1.26   -2.22   -0.12
#  19   -0.12   -0.37    0.03    0.30   -0.03    0.00    0.00      -0.19    1.69   -0.18
#  20   -0.22   -0.12    0.00    0.31   -0.02    0.00    0.00      -0.04    4.71   -0.24
#  21    0.47   -0.08    0.00   -0.63   -0.01    0.00    0.00      -0.24  -18.65   -0.16
#  22   -0.66   -0.05    0.00    0.84   -0.01    0.00    0.00       0.12   32.76   -0.41
#  23   -0.56   -0.05    0.00    0.87   -0.01    0.00    0.00       0.26   34.90   -0.43
#  24    0.19   -0.78    0.15   -0.12   -0.03    0.00    0.00      -0.60   -0.44   -0.12
#  25   -6.38   -1.88    0.80    4.38    0.10    0.00    0.00      -2.99   12.26    0.27
#  26    1.73   -1.63    0.41   -0.77   -0.10    0.00    0.00      -0.35   -2.27   -0.30
#  27   -3.04   -1.90    1.04    2.73   -0.12    0.00    0.00      -1.30    7.48   -0.34
#  28   22.56   -1.90    0.46   -9.76   -0.07    0.00    0.00      11.29  -22.70   -0.17
#  29  -34.16   -3.40    1.31   18.07   -0.17    0.00    0.00     -18.35   34.35   -0.33
#  30  -31.05   -1.62    0.92   14.01   -0.22    0.00    0.00     -17.97   36.85   -0.59
#  31    4.19   -0.01    0.00   -1.04    0.12    0.00    0.00       3.26  -11.03    1.25
#  32    1.09   -0.28    0.04   -0.54   -0.07    0.00    0.00       0.23   -2.10   -0.28
#  33    2.11   -0.12    0.01   -0.25   -0.03    0.00    0.00       1.71   -2.21   -0.28
#  34    0.82   -1.10    2.21   -0.70   -0.12    0.00    0.00       1.10   -1.59   -0.28
#  35    1.20   -1.02    0.47   -1.04   -0.20    0.00    0.00      -0.59   -1.47   -0.28
#  36    2.60   -0.92    0.35   -1.49   -0.20    0.00    0.00       0.33   -2.07   -0.28
#  37    3.25   -0.96    0.56   -1.24   -0.17    0.00    0.00       1.43   -2.02   -0.28
#  38    3.76   -0.59    0.29   -1.72   -0.10    0.00    0.00       1.63   -3.59   -0.21
#  39    1.38   -0.24    0.03   -1.21   -0.08    0.00    0.00      -0.13   -4.16   -0.27
#  40    0.38   -0.45    0.50   -0.98   -0.06    0.00    0.00      -0.61   -4.46   -0.28
#  41    0.20   -0.63    0.26   -1.02   -0.10    0.00    0.00      -1.30   -2.75   -0.28
#  42    0.10   -0.17    0.04   -0.40   -0.04    0.00    0.00      -0.46   -3.04   -0.28
#  43    0.11   -0.09    0.00   -0.15   -0.03    0.00    0.00      -0.15   -1.62   -0.28
#  44    0.09   -0.02    0.00   -0.06   -0.01    0.00    0.00       0.00   -2.64   -0.27
#  45    0.06   -0.04    0.00   -0.10   -0.01    0.00    0.00      -0.08   -3.18   -0.28
#  46    0.52   -0.09    0.00   -0.18   -0.02    0.00    0.00       0.23   -2.28   -0.28
#  47    0.98   -0.38    0.14   -1.06   -0.07    0.00    0.00      -0.38   -4.54   -0.28

@<TRIPOS>MOLECULE
       AVX38742_0       100
   47    50     0     0     0



@<TRIPOS>ATOM
      1 O1         17.8767   -19.6483    10.9196 O.3        1          -0.3599
      2 N1         17.3010   -20.6294    11.7629 N.2        1          -0.3418
      3 C1         17.2568   -21.8673    11.3809 C.2        1           0.1682
      4 C2         17.0207   -23.0779    12.2532 C.3        1          -0.0151
      5 C3         17.0616   -24.2800    11.3419 C.ar       1          -0.1066
      6 C4         16.9085   -25.6270    11.6074 C.ar       1          -0.0995
      7 C5         16.9905   -26.5520    10.5828 C.ar       1          -0.1374
      8 C6         17.2269   -26.1332     9.2852 C.ar       1          -0.1155
      9 C7         17.3813   -24.7921     9.0077 C.ar       1          -0.1101
     10 C8         17.2994   -23.8499    10.0389 C.ar       1          -0.0136
     11 C9         17.4204   -22.3750    10.0095 C.2        1          -0.1897
     12 C10        17.6481   -21.6165     8.9016 C.2        1           0.0708
     13 C11        17.1993   -20.2225     8.8633 C.ar       1          -0.0202
     14 C12        18.1231   -19.1911     8.6791 C.ar       1          -0.1027
     15 C13        17.6995   -17.8793     8.6448 C.ar       1          -0.1247
     16 C14        16.3542   -17.5634     8.7916 C.ar       1           0.0396
     17 O2         15.9723   -16.2571     8.7607 O.3        1          -0.3025
     18 C15        14.5825   -15.9978     8.5366 C.3        1           0.0509
     19 C16        14.2686   -14.5391     8.8754 C.3        1          -0.0814
     20 C17        15.0359   -14.1316    10.1348 C.3        1          -0.1793
     21 C18        14.7267   -12.6948    10.4684 C.2        1           0.4917
     22 O3         13.5787   -12.3563    10.7005 O.co2      1          -0.7015
     23 O4         15.6247   -11.8710    10.5063 O.co2      1          -0.7110
     24 C19        13.7674   -16.9272     9.4460 C.3        1           0.0189
     25 O5         14.0951   -18.2803     9.1122 O.3        1          -0.2609
     26 C20        15.4137   -18.5729     8.9729 C.ar       1           0.0768
     27 C21        15.8260   -19.9116     9.0066 C.ar       1          -0.0992
     28 C22        14.8411   -20.9839     9.1944 C.2        1           0.5256
     29 O6         14.3052   -21.4998     8.2224 O.co2      1          -0.6903
     30 O7         14.5558   -21.3620    10.3230 O.co2      1          -0.6618
     31 H1         17.8639   -18.7551    11.2899 H          1           0.3816
     32 H2         17.8046   -23.1536    13.0068 H          1           0.0982
     33 H3         16.0452   -23.0069    12.7342 H          1           0.0957
     34 H4         16.7245   -25.9588    12.6186 H          1           0.1178
     35 H5         16.8700   -27.6040    10.7958 H          1           0.1182
     36 H6         17.2909   -26.8591     8.4881 H          1           0.1197
     37 H7         17.5661   -24.4685     7.9941 H          1           0.1234
     38 H8         18.1594   -22.0428     8.0511 H          1           0.1592
     39 H9         19.1719   -19.4216     8.5638 H          1           0.1138
     40 H10        18.4212   -17.0884     8.5026 H          1           0.1229
     41 H11        14.3354   -16.1941     7.4932 H          1           0.0761
     42 H12        14.5685   -13.9006     8.0445 H          1           0.0815
     43 H13        13.1983   -14.4289     9.0503 H          1           0.0712
     44 H14        14.7360   -14.7702    10.9656 H          1           0.0643
     45 H15        16.1062   -14.2417     9.9597 H          1           0.0551
     46 H16        14.0189   -16.7346    10.4889 H          1           0.0684
     47 H17        12.7026   -16.7568     9.2864 H          1           0.1148
@<TRIPOS>BOND
     1    1    2 1
     2    1   31 1
     3    2    3 2
     4    3   11 1
     5    3    4 1
     6    4    5 1
     7    4   32 1
     8    4   33 1
     9    5   10 ar
    10    5    6 ar
    11    6    7 ar
    12    6   34 1
    13    7    8 ar
    14    7   35 1
    15    8    9 ar
    16    8   36 1
    17    9   10 ar
    18    9   37 1
    19   10   11 1
    20   11   12 2
    21   12   13 1
    22   12   38 1
    23   13   27 ar
    24   13   14 ar
    25   14   15 ar
    26   14   39 1
    27   15   16 ar
    28   15   40 1
    29   16   26 ar
    30   16   17 1
    31   17   18 1
    32   18   19 1
    33   18   24 1
    34   18   41 1
    35   19   20 1
    36   19   42 1
    37   19   43 1
    38   20   21 1
    39   20   44 1
    40   20   45 1
    41   21   22 1
    42   21   23 2
    43   24   25 1
    44   24   46 1
    45   24   47 1
    46   25   26 1
    47   26   27 ar
    48   27   28 1
    49   28   29 1
    50   28   30 2
