AVX38781_1, 3
##########                 Name:           AVX38781_0
##########          Protonation:                   61
##########               SMILES:   CC[NH+](Cc1ccccc1C(=O)NCC2CCCCC2)Cc3ccc4c(c3C(=O)[O-])OC[C@H](O4)CCC(=O)[O-]
##########            Long Name:   ]methyl]-2-(3-oxido-3-oxo-propyl)-2,3-dihydro-1,4-benzodioxine-5-carboxylate
##########          FlexRecCode: 1
##########               Number:                  587
##########   Ligand Source File: /raid1/people/rgc/Examples/sampl4/screening/ligands/build_1//sampl4-hivint-00000
##########           GlobalRank: 64
##########                 Rank:                    1
##########               Setnum:                  139
##########             Matchnum:                31750
##########                Cloud:                    1
##########        Electrostatic:           -50.645184
##########        Van der Waals:           -16.160040
##########  Ligand Polar Desolv:            28.852562
########## Ligand Apolar Desolv:            -2.936622
##########      Internal Energy:             0.000000
##########      Receptor Energy: 0.0
########## Receptor Desolvation:             0.000000
########## Receptor Hydrophobic:             0.000000
##########         Total Energy: -40.89
##########        Ligand Charge:            -1.000000
##########            Arbitrary:    +999.9990
##########     heavy atom count:   40
##########           pose count:    1
##########        Ligand Energy:             0.000000
# num electro vdwattr vdwrepu polsolv apolsol rdesolv rhydroe totalscore fullpol fullapo
#   1  -29.72   -1.61    1.50    9.70   -0.14    0.00    0.00     -20.27   29.41   -0.41
#   2   20.61   -1.37    0.54   -5.67   -0.06    0.00    0.00      14.05  -16.39   -0.16
#   3  -35.65   -2.46    2.35   13.03   -0.18    0.00    0.00     -22.90   31.16   -0.43
#   4   -5.14   -0.51    0.04    1.02   -0.07    0.00    0.00      -4.65    3.78   -0.25
#   5   -1.67   -0.51    0.03    0.48   -0.05    0.00    0.00      -1.72    1.57   -0.18
#   6    1.21   -0.81    0.08   -0.89   -0.05    0.00    0.00      -0.46   -2.07   -0.12
#   7    0.25   -1.16    0.27   -0.25   -0.05    0.00    0.00      -0.94   -0.56   -0.12
#   8   -2.90   -1.28    0.64    3.17    0.10    0.00    0.00      -0.28    8.74    0.27
#   9    1.20   -1.05    0.14   -0.23   -0.10    0.00    0.00      -0.04   -0.69   -0.30
#  10   -0.64   -1.07    0.22    0.86   -0.09    0.00    0.00      -0.73    2.82   -0.30
#  11    2.37   -1.12    0.39   -3.69   -0.04    0.00    0.00      -2.09  -13.16   -0.15
#  12   -2.30   -1.65    1.71    6.25   -0.14    0.00    0.00       3.87   26.20   -0.59
#  13   -2.88   -1.18    0.25    4.61   -0.08    0.00    0.00       0.71   14.55   -0.25
#  14   -0.50   -1.82    1.56    0.14   -0.07    0.00    0.00      -0.68    0.49   -0.23
#  15    0.06   -1.13    0.99   -0.04   -0.06    0.00    0.00      -0.18   -0.16   -0.28
#  16   -0.42   -0.27    0.01    0.02    0.01    0.00    0.00      -0.65    0.13    0.07
#  17    0.94    0.00    0.00   -0.11    0.01    0.00    0.00       0.84   -2.86    0.29
#  18    0.03   -0.17    0.01    0.01   -0.04    0.00    0.00      -0.16    0.14   -0.37
#  19   -0.17   -0.10    0.00    0.02   -0.01    0.00    0.00      -0.27    0.61   -0.35
#  20   -0.24   -0.11    0.00    0.03   -0.01    0.00    0.00      -0.34    0.77   -0.34
#  21    0.02   -0.13    0.00    0.01   -0.02    0.00    0.00      -0.13    0.08   -0.28
#  22   -0.06   -0.23    0.01   -0.02   -0.03    0.00    0.00      -0.33   -0.22   -0.31
#  23   -0.09   -0.41    0.05   -0.09   -0.05    0.00    0.00      -0.60   -0.67   -0.39
#  24   -0.07   -0.48    0.03   -0.10   -0.09    0.00    0.00      -0.71   -0.54   -0.47
#  25   -0.07   -0.76    0.06   -0.09   -0.12    0.00    0.00      -0.99   -0.34   -0.47
#  26   -0.05   -0.68    0.07    0.01   -0.10    0.00    0.00      -0.75    0.05   -0.44
#  27   -0.08   -0.28    0.01    0.05   -0.04    0.00    0.00      -0.34    0.44   -0.40
#  28    0.37   -0.19    0.01   -0.35   -0.05    0.00    0.00      -0.21   -4.65   -0.63
#  29   -0.30   -0.11    0.00    0.31    0.01    0.00    0.00      -0.09    7.15    0.22
#  30   -0.54   -0.20    0.01    0.57    0.18    0.00    0.00       0.01    6.75    2.20
#  31    0.10   -0.07    0.00   -0.09   -0.01    0.00    0.00      -0.07   -2.38   -0.38
#  32   -0.07   -0.12    0.00    0.07   -0.01    0.00    0.00      -0.13    0.85   -0.15
#  33   -0.09   -0.24    0.03    0.11   -0.03    0.00    0.00      -0.22    0.84   -0.22
#  34   -0.08   -0.32    0.04    0.10   -0.04    0.00    0.00      -0.29    0.70   -0.25
#  35   -0.08   -0.11    0.01    0.07   -0.02    0.00    0.00      -0.13    1.15   -0.25
#  36   -0.07   -0.08    0.00    0.06   -0.01    0.00    0.00      -0.10    1.25   -0.25
#  37   -0.08   -0.05    0.00    0.04   -0.01    0.00    0.00      -0.09    1.76   -0.22
#  38   -1.14   -2.18    0.83    0.08   -0.13    0.00    0.00      -2.54    0.25   -0.39
#  39   -2.51   -3.29    3.86    0.57   -0.17    0.00    0.00      -1.53    1.56   -0.46
#  40    1.34   -1.90    1.49    0.05   -0.10    0.00    0.00       0.88    0.15   -0.30
#  41   -8.64   -1.92    1.59    3.09    0.25    0.00    0.00      -5.62    7.73    0.62
#  42    1.39   -0.13    0.02   -0.28   -0.03    0.00    0.00       0.97   -2.47   -0.28
#  43    1.78   -0.18    0.01   -0.40   -0.05    0.00    0.00       1.16   -2.21   -0.27
#  44    1.34   -0.11    0.01   -0.13   -0.03    0.00    0.00       1.08   -1.25   -0.28
#  45    1.13   -0.22    0.02   -0.51   -0.06    0.00    0.00       0.36   -2.20   -0.28
#  46    1.97   -0.32    0.04   -0.73   -0.11    0.00    0.00       0.85   -1.81   -0.28
#  47    0.67   -0.53    0.22   -0.60   -0.11    0.00    0.00      -0.35   -1.49   -0.28
#  48    1.72   -0.68    0.81   -1.24   -0.11    0.00    0.00       0.50   -3.03   -0.28
#  49    0.06   -0.37    0.28    0.21   -0.05    0.00    0.00       0.13    1.08   -0.27
#  50    0.13   -0.63    0.83   -0.17   -0.04    0.00    0.00       0.12   -0.65   -0.15
#  51    0.11   -0.05    0.00    0.05   -0.01    0.00    0.00       0.10    0.93   -0.20
#  52    0.26   -0.08    0.00    0.18   -0.02    0.00    0.00       0.34    2.18   -0.28
#  53    0.12   -0.01    0.00   -0.01    0.00    0.00    0.00       0.10   -0.56   -0.22
#  54    0.29   -0.04    0.00    0.00   -0.01    0.00    0.00       0.24   -0.13   -0.27
#  55    0.16   -0.01    0.00   -0.01    0.00    0.00    0.00       0.14   -0.50   -0.28
#  56    0.13   -0.05    0.00    0.00   -0.01    0.00    0.00       0.08    0.02   -0.14
#  57    0.09   -0.02    0.00    0.04   -0.01    0.00    0.00       0.11    2.25   -0.27
#  58    0.13   -0.17    0.06    0.35   -0.04    0.00    0.00       0.33    2.47   -0.28
#  59    0.13   -0.11    0.01    0.17   -0.03    0.00    0.00       0.16    1.53   -0.28
#  60    0.08   -0.29    0.04    0.22   -0.08    0.00    0.00      -0.03    0.74   -0.28
#  61    0.08   -0.24    0.05    0.00   -0.05    0.00    0.00      -0.16    0.01   -0.22
#  62    0.34    0.00    0.00   -0.16    0.03    0.00    0.00       0.20   -2.26    0.38
#  63    0.06   -0.01    0.00    0.00    0.00    0.00    0.00       0.05    0.18   -0.28
#  64    0.07   -0.01    0.00   -0.01    0.00    0.00    0.00       0.05   -0.34   -0.28
#  65    0.05   -0.06    0.00   -0.05   -0.02    0.00    0.00      -0.08   -0.96   -0.28
#  66    0.06   -0.04    0.00   -0.01   -0.01    0.00    0.00       0.00   -0.32   -0.28
#  67    0.04   -0.18    0.08   -0.08   -0.04    0.00    0.00      -0.17   -0.56   -0.24
#  68    0.04   -0.09    0.01   -0.05   -0.03    0.00    0.00      -0.12   -0.46   -0.28
#  69    0.04   -0.27    0.13   -0.08   -0.05    0.00    0.00      -0.24   -0.46   -0.28
#  70    0.05   -0.01    0.00    0.00    0.00    0.00    0.00       0.03   -0.37   -0.28
#  71    0.04   -0.03    0.00   -0.02   -0.01    0.00    0.00      -0.02   -0.66   -0.28
#  72    0.04   -0.01    0.00    0.00    0.00    0.00    0.00       0.02   -0.61   -0.28
#  73    0.03   -0.05    0.01   -0.04   -0.01    0.00    0.00      -0.07   -0.81   -0.28
#  74    0.05   -0.01    0.00    0.00    0.00    0.00    0.00       0.03   -0.53   -0.28
#  75    0.06   -0.01    0.00    0.00    0.00    0.00    0.00       0.05   -0.50   -0.28
#  76    0.85   -0.48    0.13    0.00   -0.09    0.00    0.00       0.42    0.01   -0.28
#  77    3.54   -1.24    2.14   -0.71   -0.11    0.00    0.00       3.61   -1.82   -0.28

@<TRIPOS>MOLECULE
       AVX38781_0        61
   77    80     0     0     0



@<TRIPOS>ATOM
      1 O1         14.8303   -20.6013    10.5995 O.co2      1          -0.6990
      2 C1         15.0909   -21.7920    10.5738 C.2        1           0.4902
      3 O2         14.4581   -22.5389     9.8471 O.co2      1          -0.7073
      4 C2         16.1994   -22.3395    11.4355 C.3        1          -0.1781
      5 C3         17.5194   -21.6640    11.0586 C.3        1          -0.0836
      6 C4         17.8326   -21.9422     9.5870 C.3        1           0.0537
      7 C5         19.3167   -21.6736     9.3108 C.3        1           0.0184
      8 O3         19.5797   -20.3138     9.6712 O.3        1          -0.2607
      9 C6         18.7115   -19.3802     9.2050 C.ar       1           0.0923
     10 C7         19.0872   -18.0294     9.1861 C.ar       1          -0.0916
     11 C8         20.4176   -17.6244     9.6679 C.2        1           0.5285
     12 O4         20.5793   -17.3338    10.8452 O.co2      1          -0.6375
     13 O5         21.3616   -17.5786     8.8912 O.co2      1          -0.7102
     14 C9         18.1902   -17.0685     8.7061 C.ar       1          -0.1134
     15 C10        18.5849   -15.6144     8.6812 C.3        1           0.0607
     16 N1         18.2020   -14.9811     9.9501 N.4        1          -0.3535
     17 H1         18.3900   -15.6149    10.7125 H          1           0.4372
     18 C11        16.7692   -14.6584     9.9235 C.3        1           0.0285
     19 C12        16.2686   -14.4779    11.3334 C.2        1          -0.1681
     20 C13        15.3144   -15.2487    11.7934 C.2        1          -0.1476
     21 C14        18.9785   -13.7479    10.1358 C.3        1           0.0231
     22 C15        20.3535   -14.0924    10.6471 C.ar       1          -0.0838
     23 C16        21.3832   -14.3260     9.7587 C.ar       1          -0.1053
     24 C17        22.6459   -14.6424    10.2265 C.ar       1          -0.0945
     25 C18        22.8856   -14.7267    11.5868 C.ar       1          -0.1037
     26 C19        21.8652   -14.4950    12.4856 C.ar       1          -0.0836
     27 C20        20.5898   -14.1702    12.0204 C.ar       1          -0.1082
     28 C21        19.4928   -13.9152    12.9781 C.2        1           0.5386
     29 O6         19.2925   -12.7880    13.3867 O.2        1          -0.5111
     30 N2         18.7151   -14.9325    13.3983 N.am       1          -0.7102
     31 C22        17.6281   -14.6798    14.3475 C.3        1           0.1211
     32 C23        18.1539   -14.8294    15.7766 C.3        1          -0.0949
     33 C24        18.6871   -16.2492    15.9780 C.3        1          -0.1153
     34 C25        19.2128   -16.3986    17.4069 C.3        1          -0.1170
     35 C26        18.0776   -16.1347    18.3984 C.3        1          -0.1228
     36 C27        17.5445   -14.7148    18.1969 C.3        1          -0.1167
     37 C28        17.0186   -14.5654    16.7680 C.3        1          -0.1150
     38 C29        16.9467   -17.4528     8.2560 C.ar       1          -0.1141
     39 C30        16.5766   -18.7875     8.2748 C.ar       1          -0.1215
     40 C31        17.4531   -19.7516     8.7456 C.ar       1           0.0630
     41 O7         17.0751   -21.0593     8.7535 O.3        1          -0.2991
     42 H2         15.9761   -22.1413    12.4839 H          1           0.0538
     43 H3         16.2839   -23.4149    11.2791 H          1           0.0629
     44 H4         17.4349   -20.5886    11.2150 H          1           0.0735
     45 H5         18.3211   -22.0601    11.6818 H          1           0.0844
     46 H6         17.5901   -22.9774     9.3464 H          1           0.0764
     47 H7         19.9322   -22.3419     9.9130 H          1           0.0730
     48 H8         19.5295   -21.8239     8.2524 H          1           0.1193
     49 H9         19.6634   -15.5330     8.5454 H          1           0.1022
     50 H10        18.0762   -15.1139     7.8572 H          1           0.1586
     51 H11        16.6148   -13.7367     9.3624 H          1           0.1117
     52 H12        16.2226   -15.4709     9.4450 H          1           0.1196
     53 H13        16.6967   -13.7134    11.9647 H          1           0.1406
     54 H14        14.8863   -16.0133    11.1620 H          1           0.0937
     55 H15        14.9557   -15.1193    12.8038 H          1           0.1120
     56 H16        19.0654   -13.2263     9.1827 H          1           0.1637
     57 H17        18.4730   -13.1054    10.8567 H          1           0.1182
     58 H18        21.2025   -14.2621     8.6959 H          1           0.1372
     59 H19        23.4483   -14.8245     9.5270 H          1           0.1357
     60 H20        23.8737   -14.9748    11.9455 H          1           0.1362
     61 H21        22.0536   -14.5612    13.5470 H          1           0.1330
     62 H22        18.8749   -15.8319    13.0722 H          1           0.3966
     63 H23        17.2482   -13.6682    14.2040 H          1           0.0834
     64 H24        16.8247   -15.3970    14.1793 H          1           0.0718
     65 H25        18.9573   -14.1122    15.9448 H          1           0.0748
     66 H26        17.8835   -16.9662    15.8096 H          1           0.0672
     67 H27        19.4957   -16.4371    15.2718 H          1           0.0552
     68 H28        19.5927   -17.4102    17.5505 H          1           0.0602
     69 H29        20.0163   -15.6815    17.5754 H          1           0.0592
     70 H30        17.2742   -16.8517    18.2300 H          1           0.0647
     71 H31        18.4522   -16.2412    19.4164 H          1           0.0600
     72 H32        16.7358   -14.5269    18.9030 H          1           0.0655
     73 H33        18.3479   -13.9977    18.3652 H          1           0.0597
     74 H34        16.6389   -13.5538    16.6244 H          1           0.0709
     75 H35        16.2152   -15.2825    16.5995 H          1           0.0685
     76 H36        16.2560   -16.7092     7.8867 H          1           0.1201
     77 H37        15.5989   -19.0784     7.9200 H          1           0.1288
@<TRIPOS>BOND
     1    1    2 1
     2    2    3 2
     3    2    4 1
     4    4    5 1
     5    4   42 1
     6    4   43 1
     7    5    6 1
     8    5   44 1
     9    5   45 1
    10    6   41 1
    11    6    7 1
    12    6   46 1
    13    7    8 1
    14    7   47 1
    15    7   48 1
    16    8    9 1
    17    9   40 ar
    18    9   10 ar
    19   10   11 1
    20   10   14 ar
    21   11   12 1
    22   11   13 2
    23   14   15 1
    24   14   38 ar
    25   15   16 1
    26   15   49 1
    27   15   50 1
    28   16   17 1
    29   16   18 1
    30   16   21 1
    31   18   19 1
    32   18   51 1
    33   18   52 1
    34   19   20 2
    35   19   53 1
    36   20   54 1
    37   20   55 1
    38   21   22 1
    39   21   56 1
    40   21   57 1
    41   22   27 ar
    42   22   23 ar
    43   23   24 ar
    44   23   58 1
    45   24   25 ar
    46   24   59 1
    47   25   26 ar
    48   25   60 1
    49   26   27 ar
    50   26   61 1
    51   27   28 1
    52   28   29 2
    53   28   30 am
    54   30   31 1
    55   30   62 1
    56   31   32 1
    57   31   63 1
    58   31   64 1
    59   32   37 1
    60   32   33 1
    61   32   65 1
    62   33   34 1
    63   33   66 1
    64   33   67 1
    65   34   35 1
    66   34   68 1
    67   34   69 1
    68   35   36 1
    69   35   70 1
    70   35   71 1
    71   36   37 1
    72   36   72 1
    73   36   73 1
    74   37   74 1
    75   37   75 1
    76   38   39 ar
    77   38   76 1
    78   39   40 ar
    79   39   77 1
    80   40   41 1
