AVX38785_1, 3
##########                 Name:           AVX38785_0
##########          Protonation:                   77
##########               SMILES:   C[NH+](Cc1ccccc1C(=O)NCc2ccccc2)Cc3ccc4c(c3C(=O)[O-])OC[C@@H](O4)CCC(=O)[O-]
##########            Long Name:   ]methyl]-2-(3-oxido-3-oxo-propyl)-2,3-dihydro-1,4-benzodioxine-5-carboxylate
##########          FlexRecCode: 1
##########               Number:                  114
##########   Ligand Source File: /raid1/people/rgc/Examples/sampl4/screening/ligands/build_1//sampl4-hivint-00000
##########           GlobalRank: 90
##########                 Rank:                    1
##########               Setnum:                   55
##########             Matchnum:                10384
##########                Cloud:                    1
##########        Electrostatic:           -34.797874
##########        Van der Waals:           -18.555323
##########  Ligand Polar Desolv:            18.762016
########## Ligand Apolar Desolv:            -3.170433
##########      Internal Energy:             0.000000
##########      Receptor Energy: 0.0
########## Receptor Desolvation:             0.000000
########## Receptor Hydrophobic:             0.000000
##########         Total Energy: -37.76
##########        Ligand Charge:            -1.000000
##########            Arbitrary:    +999.9990
##########     heavy atom count:   38
##########           pose count:    1
##########        Ligand Energy:             0.000000
# num electro vdwattr vdwrepu polsolv apolsol rdesolv rhydroe totalscore fullpol fullapo
#   1   -0.59   -0.42    0.06   -0.12   -0.09    0.00    0.00      -1.17   -0.57   -0.41
#   2   -5.72   -0.53    0.04   -0.35    0.04    0.00    0.00      -6.51   -1.41    0.16
#   3    9.20   -0.01    0.00    0.21    0.04    0.00    0.00       9.44    1.91    0.32
#   4    0.41   -0.81    0.11    0.06   -0.10    0.00    0.00      -0.34    0.18   -0.30
#   5   -1.34   -1.29    0.17   -0.17   -0.11    0.00    0.00      -2.73   -0.47   -0.30
#   6   -1.80   -2.61    1.50   -0.32   -0.17    0.00    0.00      -3.40   -0.75   -0.40
#   7   -2.13   -2.87    1.25   -0.36   -0.25    0.00    0.00      -4.35   -0.67   -0.47
#   8   -2.89   -3.28    2.63   -0.37   -0.24    0.00    0.00      -4.15   -0.72   -0.47
#   9   -1.76   -2.25    1.71   -0.19   -0.18    0.00    0.00      -2.67   -0.47   -0.44
#  10   -2.15   -1.10    0.15   -0.19   -0.13    0.00    0.00      -3.42   -0.57   -0.40
#  11    7.75   -0.71    0.06    0.13   -0.16    0.00    0.00       7.08    0.53   -0.63
#  12   -9.69   -0.69    0.23    0.25    0.05    0.00    0.00      -9.85    1.40    0.29
#  13   -3.49   -0.88    0.12   -0.20    0.57    0.00    0.00      -3.89   -0.83    2.32
#  14    0.46   -0.25    0.01   -0.04   -0.06    0.00    0.00       0.12   -0.30   -0.44
#  15   -0.19   -0.28    0.01    0.02   -0.04    0.00    0.00      -0.48    0.22   -0.37
#  16   -0.09   -0.34    0.01    0.03   -0.06    0.00    0.00      -0.44    0.22   -0.45
#  17   -0.09   -0.39    0.04    0.03   -0.05    0.00    0.00      -0.46    0.26   -0.47
#  18   -0.07   -0.45    0.10    0.03   -0.05    0.00    0.00      -0.44    0.28   -0.47
#  19   -0.08   -0.31    0.03    0.03   -0.05    0.00    0.00      -0.37    0.35   -0.47
#  20   -0.19   -0.24    0.01    0.02   -0.04    0.00    0.00      -0.43    0.28   -0.45
#  21    1.07   -0.62    0.15   -0.16   -0.07    0.00    0.00       0.38   -0.59   -0.26
#  22   -1.55   -0.61    0.09    0.07   -0.08    0.00    0.00      -2.08    0.34   -0.39
#  23   -1.50   -0.85    0.45    0.04   -0.06    0.00    0.00      -1.92    0.21   -0.34
#  24   -0.69   -0.37    0.02    0.08   -0.06    0.00    0.00      -1.02    0.59   -0.46
#  25    0.43   -0.41    0.01    0.02   -0.05    0.00    0.00       0.01    0.15   -0.30
#  26   -1.10   -0.34    0.01    1.01    0.10    0.00    0.00      -0.32    6.31    0.62
#  27    0.11   -0.44    0.03   -0.37   -0.03    0.00    0.00      -0.70   -1.66   -0.12
#  28   -0.11   -0.64    0.22    0.29   -0.04    0.00    0.00      -0.28    1.39   -0.18
#  29   -0.19   -0.15    0.01    0.29   -0.02    0.00    0.00      -0.06    3.57   -0.24
#  30    0.55   -0.11    0.00   -0.65   -0.01    0.00    0.00      -0.21  -15.59   -0.16
#  31   -0.82   -0.11    0.00    1.45   -0.02    0.00    0.00       0.51   28.47   -0.41
#  32   -0.77   -0.05    0.00    0.78   -0.01    0.00    0.00      -0.05   30.39   -0.43
#  33    0.12   -1.59    0.57   -0.15   -0.04    0.00    0.00      -1.10   -0.42   -0.12
#  34   -5.16   -1.41    0.28    3.01    0.09    0.00    0.00      -3.19    8.69    0.27
#  35    1.72   -0.71    0.05   -0.19   -0.08    0.00    0.00       0.79   -0.75   -0.30
#  36   -2.59   -0.65    0.04    1.02   -0.10    0.00    0.00      -2.27    4.27   -0.41
#  37   17.80   -1.12    0.17   -4.89   -0.06    0.00    0.00      11.90  -14.11   -0.17
#  38  -25.58   -2.43    1.77    8.20   -0.14    0.00    0.00     -18.18   18.77   -0.33
#  39  -28.21   -1.40    0.71    9.89   -0.21    0.00    0.00     -19.23   27.37   -0.59
#  40    0.83   -0.31    0.14    0.29   -0.06    0.00    0.00       0.88    1.26   -0.28
#  41    1.20   -0.08    0.01    0.06   -0.01    0.00    0.00       1.16    0.69   -0.18
#  42    0.85   -0.07    0.00    0.14   -0.02    0.00    0.00       0.91    1.89   -0.22
#  43    1.04   -0.53    0.17    0.06   -0.07    0.00    0.00       0.66    0.17   -0.20
#  44    1.16   -0.21    0.03    0.23   -0.05    0.00    0.00       1.16    1.23   -0.27
#  45    2.11   -0.89    1.18    0.70   -0.10    0.00    0.00       2.99    1.92   -0.28
#  46    3.39   -0.76    0.52    0.79   -0.15    0.00    0.00       3.79    1.45   -0.28
#  47    5.00   -1.27    3.08    0.65   -0.15    0.00    0.00       7.31    1.20   -0.28
#  48    2.70   -0.55    0.66    0.33   -0.07    0.00    0.00       3.07    1.00   -0.22
#  49   -0.48   -0.03    0.00    0.34    0.10    0.00    0.00      -0.06    1.43    0.43
#  50    0.33   -0.05    0.00   -0.01   -0.01    0.00    0.00       0.25   -0.19   -0.28
#  51    0.09   -0.08    0.00   -0.01   -0.02    0.00    0.00      -0.02   -0.20   -0.28
#  52    0.10   -0.07    0.00   -0.01   -0.02    0.00    0.00       0.01   -0.11   -0.28
#  53    0.10   -0.07    0.00    0.00   -0.02    0.00    0.00       0.02   -0.02   -0.28
#  54    0.06   -0.08    0.01   -0.01   -0.02    0.00    0.00      -0.03   -0.08   -0.28
#  55    0.09   -0.04    0.00   -0.01   -0.01    0.00    0.00       0.03   -0.18   -0.28
#  56    0.44   -0.03    0.00   -0.01   -0.01    0.00    0.00       0.39   -0.20   -0.28
#  57    1.53   -0.62    1.38   -0.24   -0.06    0.00    0.00       1.99   -0.93   -0.23
#  58    2.73   -0.15    0.01   -0.13   -0.04    0.00    0.00       2.41   -0.87   -0.26
#  59    0.74   -0.63    1.75    0.09   -0.04    0.00    0.00       1.91    0.43   -0.18
#  60    0.45   -0.05    0.00   -0.07   -0.02    0.00    0.00       0.31   -1.32   -0.28
#  61    0.19   -0.07    0.00   -0.09   -0.01    0.00    0.00       0.02   -1.76   -0.28
#  62    0.08   -0.68    1.49   -0.27   -0.06    0.00    0.00       0.56   -1.30   -0.28
#  63    0.13   -0.19    0.03   -0.36   -0.05    0.00    0.00      -0.43   -2.01   -0.28
#  64    0.05   -0.03    0.00   -0.07   -0.01    0.00    0.00      -0.06   -2.33   -0.28
#  65    0.06   -0.03    0.00   -0.08   -0.01    0.00    0.00      -0.06   -2.27   -0.27
#  66    0.41   -0.84    0.58   -1.13   -0.11    0.00    0.00      -1.09   -2.85   -0.28
#  67    0.73   -0.94    0.64   -0.68   -0.11    0.00    0.00      -0.36   -1.65   -0.28

@<TRIPOS>MOLECULE
       AVX38785_0        77
   67    70     0     0     0



@<TRIPOS>ATOM
      1 C1         17.6140   -20.3117    13.8000 C.3        1          -0.0636
      2 N1         17.3039   -21.3246    12.7824 N.4        1          -0.3784
      3 H1         16.3101   -21.3325    12.6075 H          1           0.4150
      4 C2         17.7271   -22.6468    13.2626 C.3        1           0.0367
      5 C3         16.9993   -23.7179    12.4917 C.ar       1          -0.0835
      6 C4         17.5455   -24.2268    11.3313 C.ar       1          -0.0993
      7 C5         16.8787   -25.2100    10.6225 C.ar       1          -0.0871
      8 C6         15.6608   -25.6897    11.0715 C.ar       1          -0.1023
      9 C7         15.1039   -25.1900    12.2303 C.ar       1          -0.0808
     10 C8         15.7742   -24.2014    12.9531 C.ar       1          -0.1209
     11 C9         15.1860   -23.6651    14.1990 C.2        1           0.5526
     12 O1         14.9227   -22.4816    14.2865 O.2        1          -0.5409
     13 N2         14.9417   -24.4883    15.2378 N.am       1          -0.7080
     14 C10        14.3590   -23.9571    16.4723 C.3        1           0.1573
     15 C11        15.4624   -23.5223    17.4023 C.ar       1          -0.1170
     16 C12        15.9967   -24.4196    18.3077 C.ar       1          -0.0999
     17 C13        17.0089   -24.0208    19.1606 C.ar       1          -0.1221
     18 C14        17.4870   -22.7249    19.1077 C.ar       1          -0.1081
     19 C15        16.9530   -21.8278    18.2017 C.ar       1          -0.1201
     20 C16        15.9438   -22.2277    17.3458 C.ar       1          -0.0981
     21 C17        18.0173   -21.0040    11.5389 C.3        1           0.0712
     22 C18        17.5830   -19.6475    11.0462 C.ar       1          -0.1011
     23 C19        18.2611   -18.5185    11.4487 C.ar       1          -0.1661
     24 C20        17.8687   -17.2686    10.9993 C.ar       1          -0.1057
     25 C21        16.7894   -17.1384    10.1392 C.ar       1           0.0512
     26 O2         16.4273   -15.8999     9.7051 O.3        1          -0.2969
     27 C22        15.1168   -15.7733     9.1425 C.3        1           0.0495
     28 C23        15.0017   -14.4419     8.3974 C.3        1          -0.0830
     29 C24        15.2485   -13.2889     9.3726 C.3        1          -0.1800
     30 C25        14.2241   -13.3370    10.4769 C.2        1           0.4905
     31 O3         13.0373   -13.2495    10.2117 O.co2      1          -0.6991
     32 O4         14.5821   -13.4634    11.6355 O.co2      1          -0.7072
     33 C26        14.8998   -16.9347     8.1630 C.3        1           0.0169
     34 O5         15.0296   -18.1625     8.8881 O.3        1          -0.2552
     35 C27        16.0929   -18.2676     9.7256 C.ar       1           0.1022
     36 C28        16.4943   -19.5345    10.1750 C.ar       1          -0.1170
     37 C29        15.7698   -20.7383     9.7369 C.2        1           0.5228
     38 O6         16.1223   -21.3305     8.7260 O.co2      1          -0.6965
     39 O7         14.8151   -21.1469    10.3835 O.co2      1          -0.6418
     40 H2         18.6874   -20.3032    13.9889 H          1           0.1213
     41 H3         17.3000   -19.3306    13.4436 H          1           0.1319
     42 H4         17.0847   -20.5496    14.7226 H          1           0.1091
     43 H5         18.8013   -22.7600    13.1160 H          1           0.1587
     44 H6         17.4933   -22.7401    14.3232 H          1           0.1313
     45 H7         18.4955   -23.8563    10.9754 H          1           0.1422
     46 H8         17.3103   -25.6047     9.7147 H          1           0.1390
     47 H9         15.1450   -26.4569    10.5132 H          1           0.1385
     48 H10        14.1534   -25.5652    12.5796 H          1           0.1339
     49 H11        15.1519   -25.4328    15.1679 H          1           0.4040
     50 H12        13.7249   -23.1024    16.2363 H          1           0.0867
     51 H13        13.7613   -24.7307    16.9544 H          1           0.0854
     52 H14        15.6235   -25.4322    18.3490 H          1           0.1242
     53 H15        17.4260   -24.7218    19.8686 H          1           0.1252
     54 H16        18.2772   -22.4131    19.7747 H          1           0.1248
     55 H17        17.3262   -20.8150    18.1606 H          1           0.1267
     56 H18        15.5294   -21.5279    16.6353 H          1           0.1262
     57 H19        19.0907   -20.9953    11.7277 H          1           0.1566
     58 H20        17.7871   -21.7555    10.7837 H          1           0.1421
     59 H21        19.1035   -18.6082    12.1188 H          1           0.1093
     60 H22        18.4069   -16.3894    11.3213 H          1           0.1344
     61 H23        14.3705   -15.8164     9.9357 H          1           0.0819
     62 H24        15.7425   -14.4072     7.5987 H          1           0.0740
     63 H25        14.0028   -14.3494     7.9709 H          1           0.0868
     64 H26        16.2473   -13.3815     9.7993 H          1           0.0560
     65 H27        15.1664   -12.3405     8.8420 H          1           0.0629
     66 H28        13.9023   -16.8679     7.7287 H          1           0.1245
     67 H29        15.6491   -16.8938     7.3724 H          1           0.0762
@<TRIPOS>BOND
     1    1    2 1
     2    1   40 1
     3    1   41 1
     4    1   42 1
     5    2    3 1
     6    2    4 1
     7    2   21 1
     8    4    5 1
     9    4   43 1
    10    4   44 1
    11    5   10 ar
    12    5    6 ar
    13    6    7 ar
    14    6   45 1
    15    7    8 ar
    16    7   46 1
    17    8    9 ar
    18    8   47 1
    19    9   10 ar
    20    9   48 1
    21   10   11 1
    22   11   12 2
    23   11   13 am
    24   13   14 1
    25   13   49 1
    26   14   15 1
    27   14   50 1
    28   14   51 1
    29   15   20 ar
    30   15   16 ar
    31   16   17 ar
    32   16   52 1
    33   17   18 ar
    34   17   53 1
    35   18   19 ar
    36   18   54 1
    37   19   20 ar
    38   19   55 1
    39   20   56 1
    40   21   22 1
    41   21   57 1
    42   21   58 1
    43   22   36 ar
    44   22   23 ar
    45   23   24 ar
    46   23   59 1
    47   24   25 ar
    48   24   60 1
    49   25   35 ar
    50   25   26 1
    51   26   27 1
    52   27   28 1
    53   27   33 1
    54   27   61 1
    55   28   29 1
    56   28   62 1
    57   28   63 1
    58   29   30 1
    59   29   64 1
    60   29   65 1
    61   30   31 1
    62   30   32 2
    63   33   34 1
    64   33   66 1
    65   33   67 1
    66   34   35 1
    67   35   36 ar
    68   36   37 1
    69   37   38 1
    70   37   39 2
