AVX38674_0, 3
##########                 Name:           AVX38674_0
##########          Protonation:                  100
##########               SMILES:   CN(Cc1ccc2c(c1C(=O)[O-])OCO2)C(=O)N[C@@H](c3ccccc3)C(=O)NCc4ccccc4
##########            Long Name:   1-phenyl-ethyl]carbamoyl-methyl-amino]methyl]-1,3-benzodioxole-4-carboxylate
##########          FlexRecCode: 1
##########               Number:                  772
##########   Ligand Source File: /raid1/people/rgc/Examples/sampl4/screening/ligands/build_1//sampl4-hivint-00000
##########           GlobalRank: 40
##########                 Rank:                    1
##########               Setnum:                  245
##########             Matchnum:                 7205
##########                Cloud:                    1
##########        Electrostatic:           -48.902317
##########        Van der Waals:           -16.874228
##########  Ligand Polar Desolv:            24.865360
########## Ligand Apolar Desolv:            -2.386409
##########      Internal Energy:             0.000000
##########      Receptor Energy: 0.0
########## Receptor Desolvation:             0.000000
########## Receptor Hydrophobic:             0.000000
##########         Total Energy: -43.3
##########        Ligand Charge:            -1.000000
##########            Arbitrary:    +999.9990
##########     heavy atom count:   35
##########           pose count:    1
##########        Ligand Energy:             0.000000
# num electro vdwattr vdwrepu polsolv apolsol rdesolv rhydroe totalscore fullpol fullapo
#   1    0.53   -0.15    0.00   -0.06   -0.05    0.00    0.00       0.27   -0.63   -0.51
#   2   -4.99   -0.32    0.01    1.40    0.16    0.00    0.00      -3.74   10.35    1.19
#   3    2.87   -0.47    0.03   -1.37   -0.08    0.00    0.00       0.98   -5.43   -0.31
#   4   -1.04   -1.06    0.21    0.38   -0.12    0.00    0.00      -1.63    1.30   -0.41
#   5   -1.71   -1.10    0.16    0.45   -0.14    0.00    0.00      -2.34    1.38   -0.42
#   6   -1.55   -1.49    0.38    0.22   -0.18    0.00    0.00      -2.63    0.55   -0.47
#   7   -0.06   -1.88    0.61   -0.11   -0.15    0.00    0.00      -1.60   -0.25   -0.33
#   8   -5.79   -2.99    2.29    2.56    0.28    0.00    0.00      -3.65    4.79    0.52
#   9    5.14   -2.08    1.16   -1.54    0.01    0.00    0.00       2.69   -2.97    0.02
#  10  -10.22   -2.68    1.85    4.39    0.16    0.00    0.00      -6.50    9.21    0.34
#  11    2.34   -1.87    0.79   -0.33   -0.13    0.00    0.00       0.79   -0.79   -0.32
#  12   -3.66   -1.43    0.51    2.21   -0.14    0.00    0.00      -2.51    6.40   -0.41
#  13   21.31   -1.58    0.36   -7.31   -0.07    0.00    0.00      12.71  -18.33   -0.17
#  14  -33.99   -3.17    8.75    9.65   -0.11    0.00    0.00     -18.87   27.93   -0.33
#  15  -31.33   -3.58    3.99   15.17   -0.27    0.00    0.00     -16.02   31.27   -0.56
#  16    2.74   -0.38    0.02   -1.74   -0.28    0.00    0.00       0.36  -11.96   -1.92
#  17   -0.94   -0.72    0.10    2.98    0.08    0.00    0.00       1.50   14.56    0.37
#  18   -1.72   -0.31    0.01    1.05    0.21    0.00    0.00      -0.76    8.39    1.69
#  19    0.18   -0.20    0.01   -0.25   -0.03    0.00    0.00      -0.30   -2.05   -0.25
#  20    0.46   -0.45    0.03   -0.86   -0.10    0.00    0.00      -0.92   -5.18   -0.60
#  21   -0.40   -0.91    0.25    1.62    0.09    0.00    0.00       0.65    7.21    0.38
#  22   -0.58   -0.48    0.03    0.84    0.41    0.00    0.00       0.22    4.67    2.29
#  23    0.12   -0.60    0.08   -0.30   -0.12    0.00    0.00      -0.83   -1.05   -0.44
#  24   -0.10   -1.16    0.44    0.16   -0.10    0.00    0.00      -0.76    0.64   -0.37
#  25   -0.15   -1.23    0.27    0.21   -0.15    0.00    0.00      -1.05    0.62   -0.45
#  26   -0.21   -1.35    0.23    0.21   -0.17    0.00    0.00      -1.30    0.56   -0.47
#  27   -0.18   -1.06    0.11    0.14   -0.16    0.00    0.00      -1.15    0.41   -0.47
#  28   -0.15   -0.72    0.06    0.11   -0.11    0.00    0.00      -0.81    0.47   -0.47
#  29   -0.10   -0.83    0.17    0.11   -0.10    0.00    0.00      -0.76    0.50   -0.45
#  30   -0.07   -0.14    0.00    0.06   -0.02    0.00    0.00      -0.17    1.14   -0.33
#  31   -0.07   -0.13    0.00    0.05   -0.02    0.00    0.00      -0.17    1.04   -0.44
#  32   -0.08   -0.06    0.00    0.02   -0.01    0.00    0.00      -0.13    0.83   -0.47
#  33   -0.06   -0.04    0.00    0.01   -0.01    0.00    0.00      -0.10    0.71   -0.47
#  34   -0.07   -0.08    0.00    0.02   -0.01    0.00    0.00      -0.14    0.84   -0.47
#  35   -0.07   -0.13    0.00    0.05   -0.02    0.00    0.00      -0.17    1.04   -0.45
#  36    0.21   -0.03    0.00   -0.03   -0.01    0.00    0.00       0.15   -0.81   -0.28
#  37    0.35   -0.04    0.00   -0.04   -0.01    0.00    0.00       0.26   -0.93   -0.22
#  38    0.76   -0.06    0.00   -0.05   -0.02    0.00    0.00       0.64   -0.88   -0.28
#  39    2.18   -0.12    0.01   -0.12   -0.03    0.00    0.00       1.91   -0.88   -0.23
#  40    1.26   -0.24    0.03   -0.43   -0.06    0.00    0.00       0.56   -1.82   -0.24
#  41    1.04   -0.18    0.02   -0.50   -0.04    0.00    0.00       0.33   -2.59   -0.21
#  42    1.33   -0.30    0.08   -0.69   -0.09    0.00    0.00       0.34   -2.28   -0.28
#  43    3.13   -0.87    0.54   -1.37   -0.16    0.00    0.00       1.26   -2.36   -0.28
#  44    1.57   -0.60    0.38   -0.65   -0.11    0.00    0.00       0.59   -1.64   -0.28
#  45    0.88   -0.01    0.00   -0.36    0.03    0.00    0.00       0.55   -4.21    0.37
#  46    0.11   -0.11    0.01   -0.14   -0.03    0.00    0.00      -0.16   -1.25   -0.26
#  47    0.36   -0.01    0.00   -0.24    0.06    0.00    0.00       0.17   -2.25    0.55
#  48    0.05   -0.19    0.02   -0.10   -0.06    0.00    0.00      -0.28   -0.50   -0.28
#  49    0.06   -0.28    0.04   -0.13   -0.07    0.00    0.00      -0.38   -0.49   -0.28
#  50    0.26   -0.21    0.02   -0.13   -0.06    0.00    0.00      -0.11   -0.59   -0.28
#  51    0.28   -0.42    0.14   -0.12   -0.09    0.00    0.00      -0.20   -0.35   -0.28
#  52    0.22   -0.27    0.03   -0.06   -0.08    0.00    0.00      -0.15   -0.20   -0.28
#  53    0.15   -0.09    0.00   -0.02   -0.02    0.00    0.00       0.02   -0.23   -0.28
#  54    0.11   -0.12    0.01   -0.06   -0.03    0.00    0.00      -0.09   -0.47   -0.28
#  55    0.10   -0.05    0.00   -0.04   -0.01    0.00    0.00       0.00   -0.92   -0.27
#  56    0.08   -0.01    0.00   -0.01    0.00    0.00    0.00       0.06   -0.68   -0.28
#  57    0.06    0.00    0.00    0.00    0.00    0.00    0.00       0.05   -0.58   -0.28
#  58    0.06   -0.02    0.00   -0.01    0.00    0.00    0.00       0.02   -0.73   -0.28
#  59    0.08   -0.04    0.00   -0.03   -0.01    0.00    0.00      -0.01   -1.02   -0.28

@<TRIPOS>MOLECULE
       AVX38674_0       100
   59    62     0     0     0



@<TRIPOS>ATOM
      1 C1         16.6691   -17.3134    12.0028 C.3        1           0.0765
      2 N1         16.8715   -17.1334    10.5630 N.am       1          -0.6274
      3 C2         16.1153   -17.9489     9.6094 C.3        1           0.1939
      4 C3         16.8848   -19.2083     9.3045 C.ar       1          -0.0518
      5 C4         18.2373   -19.1452     9.0525 C.ar       1          -0.1211
      6 C5         18.9522   -20.2982     8.7719 C.ar       1          -0.1017
      7 C6         18.3160   -21.5276     8.7412 C.ar       1          -0.0028
      8 O1         18.7879   -22.7847     8.4941 O.3        1          -0.3193
      9 C7         17.7787   -23.6791     8.9992 C.3        1           0.2047
     10 O2         16.5641   -22.9116     8.9054 O.3        1          -0.2769
     11 C8         16.9488   -21.6086     8.9936 C.ar       1           0.0773
     12 C9         16.2266   -20.4430     9.2829 C.ar       1          -0.1202
     13 C10        14.7824   -20.5164     9.5571 C.2        1           0.5221
     14 O3         14.3846   -20.6729    10.7033 O.co2      1          -0.6799
     15 O4         13.9798   -20.4209     8.6387 O.co2      1          -0.6711
     16 C11        17.7533   -16.2176    10.1157 C.2        1           0.7082
     17 O5         17.5709   -15.6697     9.0457 O.2        1          -0.5758
     18 N2         18.8373   -15.9089    10.8546 N.am       1          -0.7312
     19 C12        19.7959   -14.9132    10.3686 C.3        1           0.1901
     20 C13        21.1705   -15.2424    10.8912 C.2        1           0.5213
     21 O6         21.2950   -15.8057    11.9580 O.2        1          -0.5294
     22 N3         22.2616   -14.9107    10.1729 N.am       1          -0.7189
     23 C14        23.5981   -15.2306    10.6808 C.3        1           0.1621
     24 C15        24.5332   -15.4647     9.5223 C.ar       1          -0.1100
     25 C16        24.6762   -16.7344     8.9951 C.ar       1          -0.0996
     26 C17        25.5338   -16.9489     7.9325 C.ar       1          -0.1218
     27 C18        26.2482   -15.8935     7.3968 C.ar       1          -0.1119
     28 C19        26.1044   -14.6236     7.9235 C.ar       1          -0.1221
     29 C20        25.2435   -14.4083     8.9834 C.ar       1          -0.0985
     30 C21        19.3885   -13.5455    10.8528 C.ar       1          -0.0955
     31 C22        18.5375   -12.7676    10.0904 C.ar       1          -0.0952
     32 C23        18.1638   -11.5130    10.5346 C.ar       1          -0.1184
     33 C24        18.6406   -11.0365    11.7407 C.ar       1          -0.1151
     34 C25        19.4909   -11.8150    12.5042 C.ar       1          -0.1170
     35 C26        19.8612   -13.0713    12.0621 C.ar       1          -0.1014
     36 H1         17.3134   -16.6246    12.5492 H          1           0.0574
     37 H2         15.6273   -17.1111    12.2513 H          1           0.0603
     38 H3         16.9161   -18.3386    12.2790 H          1           0.0776
     39 H4         15.1486   -18.2092    10.0404 H          1           0.1139
     40 H5         15.9629   -17.3845     8.6893 H          1           0.1067
     41 H6         18.7434   -18.1914     9.0735 H          1           0.1243
     42 H7         20.0125   -20.2378     8.5754 H          1           0.1224
     43 H8         17.7153   -24.5738     8.3799 H          1           0.1233
     44 H9         17.9856   -23.9437    10.0361 H          1           0.0744
     45 H10        18.9830   -16.3459    11.7083 H          1           0.4044
     46 H11        19.8094   -14.9237     9.2787 H          1           0.1230
     47 H12        22.1622   -14.4601     9.3197 H          1           0.4046
     48 H13        23.9663   -14.4002    11.2831 H          1           0.0781
     49 H14        23.5477   -16.1301    11.2945 H          1           0.0789
     50 H15        24.1181   -17.5589     9.4136 H          1           0.1252
     51 H16        25.6462   -17.9412     7.5210 H          1           0.1243
     52 H17        26.9188   -16.0612     6.5670 H          1           0.1227
     53 H18        26.6627   -13.7991     7.5053 H          1           0.1237
     54 H19        25.1284   -13.4155     9.3926 H          1           0.1241
     55 H20        18.1649   -13.1397     9.1474 H          1           0.1187
     56 H21        17.4994   -10.9048     9.9384 H          1           0.1218
     57 H22        18.3493   -10.0562    12.0881 H          1           0.1208
     58 H23        19.8638   -11.4426    13.4470 H          1           0.1232
     59 H24        20.5226   -13.6808    12.6599 H          1           0.1241
@<TRIPOS>BOND
     1    1    2 1
     2    1   36 1
     3    1   37 1
     4    1   38 1
     5    2    3 1
     6    2   16 am
     7    3    4 1
     8    3   39 1
     9    3   40 1
    10    4   12 ar
    11    4    5 ar
    12    5    6 ar
    13    5   41 1
    14    6    7 ar
    15    6   42 1
    16    7   11 ar
    17    7    8 1
    18    8    9 1
    19    9   10 1
    20    9   43 1
    21    9   44 1
    22   10   11 1
    23   11   12 ar
    24   12   13 1
    25   13   14 1
    26   13   15 2
    27   16   17 2
    28   16   18 am
    29   18   19 1
    30   18   45 1
    31   19   20 1
    32   19   30 1
    33   19   46 1
    34   20   21 2
    35   20   22 am
    36   22   23 1
    37   22   47 1
    38   23   24 1
    39   23   48 1
    40   23   49 1
    41   24   29 ar
    42   24   25 ar
    43   25   26 ar
    44   25   50 1
    45   26   27 ar
    46   26   51 1
    47   27   28 ar
    48   27   52 1
    49   28   29 ar
    50   28   53 1
    51   29   54 1
    52   30   35 ar
    53   30   31 ar
    54   31   32 ar
    55   31   55 1
    56   32   33 ar
    57   32   56 1
    58   33   34 ar
    59   33   57 1
    60   34   35 ar
    61   34   58 1
    62   35   59 1
