AVX38782_1, 3
##########                 Name:           AVX38782_0
##########          Protonation:                   61
##########               SMILES:   C=CC[NH+](Cc1ccccc1C(=O)NCC2CCC2)Cc3ccc4c(c3C(=O)[O-])OC[C@H](O4)CCC(=O)[O-]
##########            Long Name:   ]methyl]-2-(3-oxido-3-oxo-propyl)-2,3-dihydro-1,4-benzodioxine-5-carboxylate
##########          FlexRecCode: 1
##########               Number:                  581
##########   Ligand Source File: /raid1/people/rgc/Examples/sampl4/screening/ligands/build_1//sampl4-hivint-00000
##########           GlobalRank: 57
##########                 Rank:                    1
##########               Setnum:                  178
##########             Matchnum:                 9310
##########                Cloud:                    1
##########        Electrostatic:           -47.773781
##########        Van der Waals:           -18.867556
##########  Ligand Polar Desolv:            27.650898
########## Ligand Apolar Desolv:            -2.681465
##########      Internal Energy:             0.000000
##########      Receptor Energy: 0.0
########## Receptor Desolvation:             0.000000
########## Receptor Hydrophobic:             0.000000
##########         Total Energy: -41.67
##########        Ligand Charge:            -1.000000
##########            Arbitrary:    +999.9990
##########     heavy atom count:   38
##########           pose count:    1
##########        Ligand Energy:             0.000000
# num electro vdwattr vdwrepu polsolv apolsol rdesolv rhydroe totalscore fullpol fullapo
#   1  -32.09   -2.50    2.80   10.16   -0.14    0.00    0.00     -21.77   29.35   -0.41
#   2   16.57   -1.33    0.26   -6.06   -0.06    0.00    0.00       9.38  -16.32   -0.16
#   3  -27.02   -2.30    1.28   14.26   -0.20    0.00    0.00     -13.98   31.09   -0.43
#   4   -3.42   -0.68    0.08    1.22   -0.08    0.00    0.00      -2.87    3.76   -0.24
#   5   -1.64   -0.54    0.03    0.48   -0.06    0.00    0.00      -1.73    1.56   -0.18
#   6    1.28   -0.82    0.10   -0.78   -0.05    0.00    0.00      -0.27   -2.05   -0.12
#   7    0.29   -1.13    0.28   -0.23   -0.05    0.00    0.00      -0.83   -0.56   -0.12
#   8   -4.21   -0.78    0.11    2.66    0.08    0.00    0.00      -2.14    8.74    0.27
#   9    2.14   -0.67    0.04   -0.18   -0.08    0.00    0.00       1.25   -0.68   -0.30
#  10   -1.72   -0.57    0.03    0.63   -0.07    0.00    0.00      -1.70    2.84   -0.30
#  11    5.54   -0.61    0.11   -2.48   -0.03    0.00    0.00       2.53  -13.15   -0.15
#  12   -4.76   -0.51    0.10    4.10   -0.09    0.00    0.00      -1.16   26.20   -0.59
#  13   -5.69   -0.70    0.11    3.74   -0.06    0.00    0.00      -2.61   14.57   -0.25
#  14   -2.47   -0.85    0.08    0.13   -0.06    0.00    0.00      -3.17    0.48   -0.23
#  15    0.69   -0.45    0.03   -0.04   -0.07    0.00    0.00       0.16   -0.16   -0.28
#  16   -2.53   -0.26    0.01    0.02    0.01    0.00    0.00      -2.76    0.14    0.07
#  17    3.39    0.00    0.00   -0.15    0.01    0.00    0.00       3.25   -2.88    0.29
#  18    0.23   -0.39    0.03    0.03   -0.08    0.00    0.00      -0.17    0.14   -0.37
#  19   -0.45   -0.52    0.12    0.10   -0.06    0.00    0.00      -0.81    0.62   -0.35
#  20   -0.29   -0.29    0.02    0.09   -0.04    0.00    0.00      -0.51    0.77   -0.34
#  21    0.04   -0.12    0.00    0.00   -0.02    0.00    0.00      -0.08    0.08   -0.28
#  22   -0.14   -0.13    0.00   -0.01   -0.01    0.00    0.00      -0.30   -0.21   -0.31
#  23   -0.13   -0.23    0.01   -0.06   -0.03    0.00    0.00      -0.45   -0.66   -0.39
#  24   -0.10   -0.22    0.01   -0.05   -0.04    0.00    0.00      -0.40   -0.53   -0.47
#  25   -0.08   -0.24    0.01   -0.03   -0.04    0.00    0.00      -0.37   -0.33   -0.47
#  26   -0.06   -0.15    0.00    0.00   -0.03    0.00    0.00      -0.23    0.06   -0.44
#  27   -0.14   -0.09    0.00    0.02   -0.01    0.00    0.00      -0.23    0.46   -0.40
#  28    0.61   -0.06    0.00   -0.12   -0.02    0.00    0.00       0.42   -4.67   -0.63
#  29   -0.52   -0.03    0.00    0.12    0.00    0.00    0.00      -0.42    7.19    0.22
#  30   -1.14   -0.09    0.00    0.29    0.10    0.00    0.00      -0.84    6.79    2.31
#  31    0.21   -0.05    0.00   -0.10   -0.02    0.00    0.00       0.05   -2.41   -0.42
#  32   -0.22   -0.06    0.00    0.05   -0.01    0.00    0.00      -0.23    1.12   -0.24
#  33   -0.37   -0.28    0.11    0.11   -0.03    0.00    0.00      -0.47    1.06   -0.33
#  34   -0.31   -0.20    0.04    0.12   -0.03    0.00    0.00      -0.38    1.30   -0.34
#  35   -0.19   -0.04    0.00    0.07   -0.01    0.00    0.00      -0.17    2.20   -0.33
#  36   -3.95   -1.74    0.46    0.09   -0.15    0.00    0.00      -5.29    0.24   -0.39
#  37   -5.19   -1.66    0.34    0.64   -0.19    0.00    0.00      -6.05    1.55   -0.46
#  38    2.18   -1.06    0.13    0.05   -0.10    0.00    0.00       1.19    0.13   -0.30
#  39  -11.05   -1.40    0.62    3.00    0.24    0.00    0.00      -8.58    7.70    0.62
#  40    0.77   -0.14    0.01   -0.34   -0.04    0.00    0.00       0.25   -2.49   -0.28
#  41    0.77   -0.43    0.22   -0.66   -0.08    0.00    0.00      -0.19   -2.20   -0.27
#  42    1.77   -0.12    0.01   -0.13   -0.03    0.00    0.00       1.50   -1.23   -0.28
#  43    1.02   -0.22    0.02   -0.49   -0.06    0.00    0.00       0.26   -2.20   -0.28
#  44    1.71   -0.38    0.08   -0.62   -0.10    0.00    0.00       0.69   -1.82   -0.28
#  45    0.68   -0.71    0.51   -0.57   -0.11    0.00    0.00      -0.20   -1.47   -0.28
#  46    2.07   -0.42    0.14   -1.18   -0.11    0.00    0.00       0.50   -3.03   -0.28
#  47    0.77   -0.11    0.00    0.15   -0.04    0.00    0.00       0.77    1.09   -0.27
#  48    1.52   -0.25    0.03   -0.15   -0.04    0.00    0.00       1.11   -0.65   -0.15
#  49    0.44   -0.11    0.01    0.09   -0.02    0.00    0.00       0.41    0.93   -0.20
#  50    2.34   -0.23    0.04    0.47   -0.06    0.00    0.00       2.56    2.18   -0.28
#  51    0.46   -0.17    0.10   -0.07   -0.03    0.00    0.00       0.29   -0.56   -0.22
#  52    0.16   -0.04    0.00    0.00   -0.01    0.00    0.00       0.10   -0.13   -0.27
#  53    0.20   -0.04    0.00   -0.02   -0.01    0.00    0.00       0.14   -0.50   -0.28
#  54    0.22   -0.05    0.00    0.00   -0.01    0.00    0.00       0.17    0.02   -0.14
#  55    0.17   -0.02    0.00    0.05   -0.01    0.00    0.00       0.19    2.24   -0.27
#  56    0.17   -0.09    0.00    0.21   -0.02    0.00    0.00       0.27    2.46   -0.28
#  57    0.11   -0.05    0.00    0.08   -0.01    0.00    0.00       0.13    1.52   -0.28
#  58    0.10   -0.07    0.00    0.05   -0.02    0.00    0.00       0.06    0.72   -0.28
#  59    0.10   -0.03    0.00    0.00   -0.01    0.00    0.00       0.06   -0.01   -0.22
#  60    1.15    0.00    0.00   -0.05    0.01    0.00    0.00       1.11   -2.27    0.43
#  61    0.10   -0.01    0.00    0.00    0.00    0.00    0.00       0.10    0.20   -0.28
#  62    0.14   -0.02    0.00   -0.01   -0.01    0.00    0.00       0.10   -0.37   -0.27
#  63    0.13   -0.01    0.00   -0.01    0.00    0.00    0.00       0.10   -1.08   -0.28
#  64    0.31   -0.29    0.39   -0.08   -0.04    0.00    0.00       0.30   -0.58   -0.27
#  65    0.17   -0.05    0.01   -0.04   -0.02    0.00    0.00       0.07   -0.69   -0.28
#  66    0.16   -0.07    0.01   -0.04   -0.02    0.00    0.00       0.04   -0.59   -0.28
#  67    0.17   -0.06    0.01   -0.06   -0.02    0.00    0.00       0.05   -0.89   -0.28
#  68    0.09   -0.01    0.00   -0.01    0.00    0.00    0.00       0.08   -0.94   -0.28
#  69    0.11   -0.01    0.00    0.00    0.00    0.00    0.00       0.10   -0.66   -0.28
#  70    4.38   -0.81    1.27    0.00   -0.10    0.00    0.00       4.74    0.01   -0.28
#  71    6.50   -0.42    0.09   -0.83   -0.13    0.00    0.00       5.21   -1.81   -0.28

@<TRIPOS>MOLECULE
       AVX38782_0        61
   71    74     0     0     0



@<TRIPOS>ATOM
      1 O1         13.7117   -23.0530    11.9443 O.co2      1          -0.6990
      2 C1         14.3494   -24.0883    12.0341 C.2        1           0.4902
      3 O2         14.0209   -25.0651    11.3826 O.co2      1          -0.7072
      4 C2         15.5471   -24.1589    12.9460 C.3        1          -0.1782
      5 C3         16.5840   -23.1230    12.5068 C.3        1          -0.0837
      6 C4         17.0193   -23.4149    11.0694 C.3        1           0.0537
      7 C5         18.3413   -22.6982    10.7700 C.3        1           0.0181
      8 O3         18.1315   -21.3009    10.9975 O.3        1          -0.2608
      9 C6         17.0208   -20.7524    10.4424 C.ar       1           0.0921
     10 C7         16.9327   -19.3609    10.2933 C.ar       1          -0.0917
     11 C8         18.0400   -18.4978    10.7351 C.2        1           0.5284
     12 O4         18.0588   -18.0642    11.8789 O.co2      1          -0.6374
     13 O5         18.9418   -18.2141     9.9585 O.co2      1          -0.7102
     14 C9         15.7864   -18.7975     9.7218 C.ar       1          -0.1133
     15 C10        15.6827   -17.3031     9.5568 C.3        1           0.0606
     16 N1         15.0716   -16.7190    10.7583 N.4        1          -0.3535
     17 H1         15.4320   -17.1833    11.5785 H          1           0.4372
     18 C11        13.6139   -16.8909    10.6991 C.3        1           0.0284
     19 C12        13.0358   -16.7583    12.0844 C.2        1          -0.1681
     20 C13        12.1561   -15.8220    12.3402 C.2        1          -0.1477
     21 C14        15.3937   -15.2873    10.8247 C.3        1           0.0231
     22 C15        16.7881   -15.1107    11.3683 C.ar       1          -0.0838
     23 C16        17.8659   -15.0710    10.5075 C.ar       1          -0.1054
     24 C17        19.1465   -14.9089    11.0048 C.ar       1          -0.0946
     25 C18        19.3559   -14.7854    12.3672 C.ar       1          -0.1039
     26 C19        18.2871   -14.8229    13.2385 C.ar       1          -0.0833
     27 C20        16.9918   -14.9811    12.7428 C.ar       1          -0.1083
     28 C21        15.8410   -15.0164    13.6703 C.2        1           0.5382
     29 O6         15.2684   -13.9862    13.9679 O.2        1          -0.5117
     30 N2         15.4268   -16.1907    14.1860 N.am       1          -0.7100
     31 C22        14.2865   -16.2257    15.1051 C.3        1           0.1270
     32 C23        14.4553   -17.3900    16.0832 C.3        1          -0.1244
     33 C24        13.9812   -18.7365    15.5266 C.3        1          -0.1366
     34 C25        12.5869   -18.3368    16.0202 C.3        1          -0.1432
     35 C26        13.3108   -17.5175    17.0937 C.3        1          -0.1290
     36 C27        14.7534   -19.6096     9.3098 C.ar       1          -0.1141
     37 C28        14.8413   -20.9842     9.4571 C.ar       1          -0.1215
     38 C29        15.9698   -21.5582    10.0197 C.ar       1           0.0628
     39 O7         16.0417   -22.9109    10.1536 O.3        1          -0.2991
     40 H2         15.2369   -23.9510    13.9700 H          1           0.0538
     41 H3         15.9849   -25.1558    12.8943 H          1           0.0630
     42 H4         16.1462   -22.1262    12.5584 H          1           0.0736
     43 H5         17.4504   -23.1739    13.1661 H          1           0.0845
     44 H6         17.1379   -24.4895    10.9296 H          1           0.0760
     45 H7         19.1219   -23.0684    11.4346 H          1           0.0732
     46 H8         18.6261   -22.8654     9.7312 H          1           0.1195
     47 H9         16.6785   -16.8832     9.4148 H          1           0.1023
     48 H10        15.0651   -17.0756     8.6879 H          1           0.1586
     49 H11        13.1841   -16.1268    10.0514 H          1           0.1118
     50 H12        13.3803   -17.8782    10.3008 H          1           0.1197
     51 H13        13.3468   -17.4353    12.8663 H          1           0.1406
     52 H14        11.8451   -15.1450    11.5583 H          1           0.0938
     53 H15        11.7418   -15.7271    13.3332 H          1           0.1120
     54 H16        15.3359   -14.8551     9.8256 H          1           0.1636
     55 H17        14.6821   -14.7848    11.4796 H          1           0.1182
     56 H18        17.7093   -15.1671     9.4433 H          1           0.1372
     57 H19        19.9867   -14.8789    10.3269 H          1           0.1357
     58 H20        20.3583   -14.6598    12.7491 H          1           0.1362
     59 H21        18.4519   -14.7265    14.3015 H          1           0.1335
     60 H22        15.8838   -17.0127    13.9486 H          1           0.3971
     61 H23        14.2384   -15.2888    15.6602 H          1           0.0835
     62 H24        13.3659   -16.3589    14.5369 H          1           0.0726
     63 H25        15.4462   -17.4244    16.5358 H          1           0.0932
     64 H26        14.0571   -18.8144    14.4421 H          1           0.0838
     65 H27        14.4004   -19.5981    16.0463 H          1           0.0639
     66 H28        12.0268   -17.7302    15.3087 H          1           0.0717
     67 H29        12.0076   -19.1692    16.4199 H          1           0.0786
     68 H30        13.5720   -18.0921    17.9824 H          1           0.0717
     69 H31        12.8231   -16.5707    17.3262 H          1           0.0878
     70 H32        13.8695   -19.1722     8.8695 H          1           0.1202
     71 H33        14.0254   -21.6122     9.1311 H          1           0.1289
@<TRIPOS>BOND
     1    1    2 1
     2    2    3 2
     3    2    4 1
     4    4    5 1
     5    4   40 1
     6    4   41 1
     7    5    6 1
     8    5   42 1
     9    5   43 1
    10    6   39 1
    11    6    7 1
    12    6   44 1
    13    7    8 1
    14    7   45 1
    15    7   46 1
    16    8    9 1
    17    9   38 ar
    18    9   10 ar
    19   10   11 1
    20   10   14 ar
    21   11   12 1
    22   11   13 2
    23   14   15 1
    24   14   36 ar
    25   15   16 1
    26   15   47 1
    27   15   48 1
    28   16   17 1
    29   16   18 1
    30   16   21 1
    31   18   19 1
    32   18   49 1
    33   18   50 1
    34   19   20 2
    35   19   51 1
    36   20   52 1
    37   20   53 1
    38   21   22 1
    39   21   54 1
    40   21   55 1
    41   22   27 ar
    42   22   23 ar
    43   23   24 ar
    44   23   56 1
    45   24   25 ar
    46   24   57 1
    47   25   26 ar
    48   25   58 1
    49   26   27 ar
    50   26   59 1
    51   27   28 1
    52   28   29 2
    53   28   30 am
    54   30   31 1
    55   30   60 1
    56   31   32 1
    57   31   61 1
    58   31   62 1
    59   32   35 1
    60   32   33 1
    61   32   63 1
    62   33   34 1
    63   33   64 1
    64   33   65 1
    65   34   35 1
    66   34   66 1
    67   34   67 1
    68   35   68 1
    69   35   69 1
    70   36   37 ar
    71   36   70 1
    72   37   38 ar
    73   37   71 1
    74   38   39 1
