AVX38753_3, 3
##########                 Name:           AVX38753_0
##########          Protonation:                   61
##########               SMILES:   CC[NH+](Cc1ccccc1C(=O)NCc2ccccc2)Cc3ccc4c(c3C(=O)[O-])OC[C@H](O4)CCC(=O)[O-]
##########            Long Name:   ]methyl]-2-(3-oxido-3-oxo-propyl)-2,3-dihydro-1,4-benzodioxine-5-carboxylate
##########          FlexRecCode: 1
##########               Number:                  638
##########   Ligand Source File: /raid1/people/rgc/Examples/sampl4/screening/ligands/build_1//sampl4-hivint-00000
##########           GlobalRank: 78
##########                 Rank:                    1
##########               Setnum:                   56
##########             Matchnum:                 2235
##########                Cloud:                    1
##########        Electrostatic:           -44.543423
##########        Van der Waals:           -17.175076
##########  Ligand Polar Desolv:            24.680548
########## Ligand Apolar Desolv:            -2.790902
##########      Internal Energy:             0.000000
##########      Receptor Energy: 0.0
########## Receptor Desolvation:             0.000000
########## Receptor Hydrophobic:             0.000000
##########         Total Energy: -39.83
##########        Ligand Charge:            -1.000000
##########            Arbitrary:    +999.9990
##########     heavy atom count:   40
##########           pose count:    1
##########        Ligand Energy:             0.000000
# num electro vdwattr vdwrepu polsolv apolsol rdesolv rhydroe totalscore fullpol fullapo
#   1  -27.78   -2.65    1.84   13.05   -0.18    0.00    0.00     -15.72   29.31   -0.41
#   2   21.38   -2.04    0.55   -7.10   -0.07    0.00    0.00      12.72  -16.25   -0.16
#   3  -36.38   -1.99    0.53   14.11   -0.20    0.00    0.00     -23.92   30.99   -0.43
#   4   -6.25   -1.52    0.80    1.47   -0.10    0.00    0.00      -5.60    3.74   -0.25
#   5   -1.83   -0.50    0.04    0.40   -0.05    0.00    0.00      -1.93    1.56   -0.18
#   6    0.57   -0.34    0.01   -0.42   -0.03    0.00    0.00      -0.21   -2.02   -0.12
#   7    0.10   -0.15    0.00   -0.05   -0.01    0.00    0.00      -0.10   -0.55   -0.12
#   8   -1.53   -0.16    0.00    0.72    0.02    0.00    0.00      -0.94    8.74    0.27
#   9    0.30   -0.29    0.05   -0.06   -0.03    0.00    0.00      -0.03   -0.65   -0.30
#  10   -0.24   -0.24    0.04    0.25   -0.03    0.00    0.00      -0.21    2.82   -0.30
#  11    1.18   -0.13    0.00   -0.78   -0.01    0.00    0.00       0.26  -13.12   -0.15
#  12   -2.24   -0.16    0.00    2.27   -0.05    0.00    0.00      -0.19   26.16   -0.59
#  13   -0.78   -0.07    0.00    0.51   -0.01    0.00    0.00      -0.35   14.53   -0.25
#  14   -0.29   -0.38    0.13    0.05   -0.02    0.00    0.00      -0.52    0.48   -0.23
#  15    0.12   -0.09    0.01   -0.01   -0.02    0.00    0.00       0.01   -0.15   -0.28
#  16   -0.78   -0.18    0.03    0.01    0.01    0.00    0.00      -0.92    0.12    0.07
#  17    1.21    0.00    0.00   -0.19    0.02    0.00    0.00       1.03   -2.90    0.29
#  18    0.07   -0.33    0.11    0.02   -0.04    0.00    0.00      -0.17    0.14   -0.37
#  19   -0.42   -0.38    0.08    0.07   -0.04    0.00    0.00      -0.69    0.61   -0.35
#  20   -0.29   -0.16    0.01    0.05   -0.02    0.00    0.00      -0.41    0.80   -0.34
#  21    0.03   -0.04    0.00    0.00   -0.01    0.00    0.00      -0.01    0.08   -0.28
#  22   -0.09   -0.05    0.00    0.00   -0.01    0.00    0.00      -0.15   -0.20   -0.31
#  23   -0.10   -0.03    0.00   -0.01   -0.01    0.00    0.00      -0.14   -0.65   -0.39
#  24   -0.07   -0.05    0.00   -0.01   -0.01    0.00    0.00      -0.14   -0.50   -0.47
#  25   -0.07   -0.11    0.00   -0.01   -0.02    0.00    0.00      -0.21   -0.24   -0.47
#  26   -0.06   -0.15    0.00    0.01   -0.03    0.00    0.00      -0.22    0.17   -0.44
#  27   -0.10   -0.10    0.00    0.02   -0.01    0.00    0.00      -0.19    0.53   -0.40
#  28    0.82   -0.19    0.01   -0.37   -0.05    0.00    0.00       0.21   -5.02   -0.63
#  29   -0.42   -0.16    0.00    0.53    0.02    0.00    0.00      -0.03    7.16    0.21
#  30   -3.11   -0.30    0.01    0.89    0.26    0.00    0.00      -2.25    7.76    2.32
#  31    0.92   -0.34    0.03   -0.55   -0.08    0.00    0.00      -0.01   -3.16   -0.44
#  32   -1.02   -0.95    0.14    0.45   -0.10    0.00    0.00      -1.48    1.67   -0.37
#  33   -1.21   -1.14    0.13    0.43   -0.14    0.00    0.00      -1.94    1.38   -0.46
#  34   -1.84   -1.78    0.46    0.44   -0.18    0.00    0.00      -2.89    1.15   -0.47
#  35   -1.30   -2.46    1.11    0.36   -0.18    0.00    0.00      -2.48    0.92   -0.47
#  36   -0.92   -2.44    1.01    0.46   -0.17    0.00    0.00      -2.07    1.24   -0.47
#  37   -0.78   -1.48    0.46    0.51   -0.14    0.00    0.00      -1.44    1.68   -0.46
#  38   -0.32   -0.92    0.66    0.03   -0.06    0.00    0.00      -0.61    0.21   -0.39
#  39   -0.37   -1.17    1.02    0.29   -0.09    0.00    0.00      -0.33    1.50   -0.46
#  40    0.20   -0.58    0.21    0.02   -0.04    0.00    0.00      -0.20    0.13   -0.30
#  41   -2.55   -0.44    0.03    1.47    0.12    0.00    0.00      -1.37    7.60    0.62
#  42    1.73   -1.15    1.63   -0.99   -0.11    0.00    0.00       1.11   -2.48   -0.28
#  43    2.46   -0.58    0.45   -0.75   -0.09    0.00    0.00       1.49   -2.22   -0.27
#  44    1.71   -0.13    0.03   -0.14   -0.03    0.00    0.00       1.44   -1.23   -0.28
#  45    1.64   -0.15    0.01   -0.33   -0.04    0.00    0.00       1.13   -2.16   -0.28
#  46    0.55   -0.16    0.01   -0.31   -0.05    0.00    0.00       0.04   -1.80   -0.28
#  47    0.40   -0.05    0.00   -0.07   -0.01    0.00    0.00       0.27   -1.49   -0.28
#  48    0.28   -0.03    0.00   -0.08   -0.01    0.00    0.00       0.16   -2.99   -0.28
#  49    0.15   -0.01    0.00    0.01    0.00    0.00    0.00       0.15    1.14   -0.27
#  50    0.26   -0.02    0.00   -0.01    0.00    0.00    0.00       0.23   -0.64   -0.15
#  51    0.22   -0.03    0.00    0.04   -0.01    0.00    0.00       0.22    0.93   -0.20
#  52    0.37   -0.42    0.55    0.39   -0.05    0.00    0.00       0.85    2.22   -0.28
#  53    0.42   -0.09    0.02   -0.05   -0.02    0.00    0.00       0.27   -0.56   -0.22
#  54    0.16   -0.02    0.00    0.00    0.00    0.00    0.00       0.14   -0.15   -0.27
#  55    0.22   -0.02    0.00   -0.01   -0.01    0.00    0.00       0.17   -0.51   -0.28
#  56    0.21   -0.01    0.00    0.00    0.00    0.00    0.00       0.20    0.03   -0.14
#  57    0.17   -0.01    0.00    0.03    0.00    0.00    0.00       0.19    2.32   -0.27
#  58    0.13    0.00    0.00    0.01    0.00    0.00    0.00       0.14    2.51   -0.28
#  59    0.09   -0.01    0.00    0.01    0.00    0.00    0.00       0.09    1.50   -0.28
#  60    0.09   -0.03    0.00    0.01   -0.01    0.00    0.00       0.06    0.58   -0.28
#  61    0.08   -0.06    0.00   -0.01   -0.01    0.00    0.00       0.01   -0.25   -0.22
#  62    2.32    0.00    0.00   -0.15    0.02    0.00    0.00       2.19   -3.31    0.43
#  63    0.26   -0.15    0.03   -0.02   -0.04    0.00    0.00       0.08   -0.14   -0.28
#  64    0.55   -0.07    0.00   -0.03   -0.01    0.00    0.00       0.44   -0.68   -0.28
#  65    1.40   -0.22    0.03   -0.29   -0.06    0.00    0.00       0.87   -1.42   -0.28
#  66    2.37   -0.35    0.06   -0.37   -0.10    0.00    0.00       1.62   -1.08   -0.28
#  67    1.50   -0.71    0.65   -0.33   -0.10    0.00    0.00       1.01   -0.90   -0.28
#  68    0.58   -1.15    2.52   -0.47   -0.11    0.00    0.00       1.36   -1.20   -0.28
#  69    0.76   -0.25    0.06   -0.36   -0.06    0.00    0.00       0.15   -1.56   -0.28
#  70    0.29   -0.14    0.05    0.01   -0.03    0.00    0.00       0.17    0.07   -0.28
#  71    0.36   -0.23    0.07   -0.37   -0.06    0.00    0.00      -0.23   -1.77   -0.28

@<TRIPOS>MOLECULE
       AVX38753_0        61
   71    74     0     0     0



@<TRIPOS>ATOM
      1 O1         15.6797   -21.2212     8.6317 O.co2      1          -0.6990
      2 C1         14.6424   -20.8309     9.1396 C.2        1           0.4903
      3 O2         13.8506   -21.6340     9.6029 O.co2      1          -0.7073
      4 C2         14.3417   -19.3555     9.2004 C.3        1          -0.1784
      5 C3         15.4353   -18.6447    10.0002 C.3        1          -0.0837
      6 C4         15.1300   -17.1467    10.0620 C.3        1           0.0533
      7 C5         16.1936   -16.4329    10.9049 C.3        1           0.0184
      8 O3         16.1894   -17.0388    12.2015 O.3        1          -0.2612
      9 C6         14.9788   -17.2067    12.7925 C.ar       1           0.0917
     10 C7         14.9053   -17.4324    14.1745 C.ar       1          -0.0922
     11 C8         16.1344   -17.4856    14.9822 C.2        1           0.5284
     12 O4         16.7100   -18.5520    15.1506 O.co2      1          -0.6375
     13 O5         16.5807   -16.4636    15.4850 O.co2      1          -0.7101
     14 C9         13.6565   -17.6064    14.7815 C.ar       1          -0.1135
     15 C10        13.5670   -17.8489    16.2662 C.3        1           0.0607
     16 N1         13.6222   -19.2928    16.5307 N.4        1          -0.3537
     17 H1         14.2997   -19.7214    15.9180 H          1           0.4371
     18 C11        12.2999   -19.8855    16.2898 C.3        1           0.0284
     19 C12        12.3564   -21.3668    16.5613 C.2        1          -0.1681
     20 C13        11.5882   -21.8939    17.4822 C.2        1          -0.1476
     21 C14        14.0134   -19.5198    17.9284 C.3        1           0.0230
     22 C15        15.3700   -18.9115    18.1755 C.ar       1          -0.0832
     23 C16        15.4736   -17.6050    18.6066 C.ar       1          -0.1055
     24 C17        16.7182   -17.0451    18.8338 C.ar       1          -0.0939
     25 C18        17.8663   -17.7903    18.6308 C.ar       1          -0.1037
     26 C19        17.7766   -19.0978    18.2004 C.ar       1          -0.0826
     27 C20        16.5237   -19.6705    17.9743 C.ar       1          -0.1082
     28 C21        16.4198   -21.0730    17.5183 C.2        1           0.5399
     29 O6         16.3395   -21.9721    18.3322 O.2        1          -0.5107
     30 N2         16.4143   -21.3545    16.2003 N.am       1          -0.7077
     31 C22        16.3114   -22.7443    15.7486 C.3        1           0.1595
     32 C23        17.0284   -22.8989    14.4322 C.ar       1          -0.1093
     33 C24        16.5962   -23.8394    13.5159 C.ar       1          -0.0991
     34 C25        17.2540   -23.9813    12.3083 C.ar       1          -0.1221
     35 C26        18.3436   -23.1821    12.0168 C.ar       1          -0.1114
     36 C27        18.7752   -22.2409    12.9327 C.ar       1          -0.1224
     37 C28        18.1149   -22.0962    14.1384 C.ar       1          -0.0963
     38 C29        12.5095   -17.5554    14.0213 C.ar       1          -0.1140
     39 C30        12.5830   -17.3321    12.6562 C.ar       1          -0.1214
     40 C31        13.8112   -17.1565    12.0397 C.ar       1           0.0630
     41 O7         13.8656   -16.9341    10.6978 O.3        1          -0.2990
     42 H2         14.3089   -18.9494     8.1894 H          1           0.0539
     43 H3         13.3779   -19.2008     9.6855 H          1           0.0631
     44 H4         15.4682   -19.0507    11.0113 H          1           0.0737
     45 H5         16.3990   -18.7993     9.5151 H          1           0.0845
     46 H6         15.1122   -16.7309     9.0544 H          1           0.0766
     47 H7         17.1737   -16.5529    10.4433 H          1           0.0735
     48 H8         15.9490   -15.3741    10.9903 H          1           0.1195
     49 H9         14.4009   -17.3558    16.7658 H          1           0.1023
     50 H10        12.6274   -17.4459    16.6441 H          1           0.1587
     51 H11        11.5682   -19.4226    16.9518 H          1           0.1119
     52 H12        12.0096   -19.7170    15.2528 H          1           0.1197
     53 H13        13.0304   -21.9939    15.9964 H          1           0.1406
     54 H14        10.9144   -21.2668    18.0470 H          1           0.0938
     55 H15        11.6289   -22.9554    17.6767 H          1           0.1119
     56 H16        13.2816   -19.0568    18.5904 H          1           0.1637
     57 H17        14.0544   -20.5912    18.1248 H          1           0.1185
     58 H18        14.5814   -17.0178    18.7666 H          1           0.1375
     59 H19        16.7939   -16.0219    19.1709 H          1           0.1359
     60 H20        18.8349   -17.3472    18.8094 H          1           0.1364
     61 H21        18.6734   -19.6783    18.0423 H          1           0.1336
     62 H22        16.4785   -20.6368    15.5509 H          1           0.3987
     63 H23        16.7663   -23.4017    16.4894 H          1           0.0918
     64 H24        15.2615   -23.0089    15.6237 H          1           0.0801
     65 H25        15.7449   -24.4638    13.7438 H          1           0.1236
     66 H26        16.9167   -24.7166    11.5929 H          1           0.1241
     67 H27        18.8579   -23.2934    11.0736 H          1           0.1224
     68 H28        19.6268   -21.6168    12.7049 H          1           0.1238
     69 H29        18.4498   -21.3583    14.8523 H          1           0.1260
     70 H30        11.5468   -17.6907    14.4921 H          1           0.1203
     71 H31        11.6773   -17.2942    12.0689 H          1           0.1290
@<TRIPOS>BOND
     1    1    2 1
     2    2    3 2
     3    2    4 1
     4    4    5 1
     5    4   42 1
     6    4   43 1
     7    5    6 1
     8    5   44 1
     9    5   45 1
    10    6   41 1
    11    6    7 1
    12    6   46 1
    13    7    8 1
    14    7   47 1
    15    7   48 1
    16    8    9 1
    17    9   40 ar
    18    9   10 ar
    19   10   11 1
    20   10   14 ar
    21   11   12 1
    22   11   13 2
    23   14   15 1
    24   14   38 ar
    25   15   16 1
    26   15   49 1
    27   15   50 1
    28   16   17 1
    29   16   18 1
    30   16   21 1
    31   18   19 1
    32   18   51 1
    33   18   52 1
    34   19   20 2
    35   19   53 1
    36   20   54 1
    37   20   55 1
    38   21   22 1
    39   21   56 1
    40   21   57 1
    41   22   27 ar
    42   22   23 ar
    43   23   24 ar
    44   23   58 1
    45   24   25 ar
    46   24   59 1
    47   25   26 ar
    48   25   60 1
    49   26   27 ar
    50   26   61 1
    51   27   28 1
    52   28   29 2
    53   28   30 am
    54   30   31 1
    55   30   62 1
    56   31   32 1
    57   31   63 1
    58   31   64 1
    59   32   37 ar
    60   32   33 ar
    61   33   34 ar
    62   33   65 1
    63   34   35 ar
    64   34   66 1
    65   35   36 ar
    66   35   67 1
    67   36   37 ar
    68   36   68 1
    69   37   69 1
    70   38   39 ar
    71   38   70 1
    72   39   40 ar
    73   39   71 1
    74   40   41 1
