AVX38789_1, 3
##########                 Name:           AVX38789_0
##########          Protonation:                   77
##########               SMILES:   C[NH+](Cc1ccccc1C(=O)NCc2ccco2)Cc3ccc4c(c3C(=O)[O-])OC[C@@H](O4)CCC(=O)[O-]
##########            Long Name:   ]methyl]-2-(3-oxido-3-oxo-propyl)-2,3-dihydro-1,4-benzodioxine-5-carboxylate
##########          FlexRecCode: 1
##########               Number:                  598
##########   Ligand Source File: /raid1/people/rgc/Examples/sampl4/screening/ligands/build_1//sampl4-hivint-00000
##########           GlobalRank: 92
##########                 Rank:                    1
##########               Setnum:                    8
##########             Matchnum:                 3074
##########                Cloud:                    1
##########        Electrostatic:           -41.878613
##########        Van der Waals:           -18.188030
##########  Ligand Polar Desolv:            25.068840
########## Ligand Apolar Desolv:            -2.582432
##########      Internal Energy:             0.000000
##########      Receptor Energy: 0.0
########## Receptor Desolvation:             0.000000
########## Receptor Hydrophobic:             0.000000
##########         Total Energy: -37.58
##########        Ligand Charge:            -1.000000
##########            Arbitrary:    +999.9990
##########     heavy atom count:   37
##########           pose count:    1
##########        Ligand Energy:             0.000000
# num electro vdwattr vdwrepu polsolv apolsol rdesolv rhydroe totalscore fullpol fullapo
#   1   -0.07   -0.04    0.00   -0.02   -0.01    0.00    0.00      -0.14   -0.60   -0.41
#   2   -0.93   -0.09    0.00   -0.07    0.01    0.00    0.00      -1.08   -1.54    0.16
#   3    1.57    0.00    0.00    0.06    0.01    0.00    0.00       1.64    2.13    0.32
#   4    0.09   -0.11    0.01    0.01   -0.02    0.00    0.00      -0.02    0.19   -0.30
#   5   -0.26   -0.22    0.01   -0.04   -0.02    0.00    0.00      -0.54   -0.49   -0.30
#   6   -0.15   -0.17    0.00   -0.04   -0.02    0.00    0.00      -0.38   -0.77   -0.40
#   7   -0.13   -0.35    0.01   -0.09   -0.06    0.00    0.00      -0.61   -0.67   -0.47
#   8   -0.19   -1.07    0.20   -0.19   -0.12    0.00    0.00      -1.37   -0.72   -0.47
#   9   -0.55   -1.06    0.12   -0.14   -0.13    0.00    0.00      -1.76   -0.48   -0.44
#  10   -1.19   -0.45    0.02   -0.11   -0.07    0.00    0.00      -1.80   -0.60   -0.40
#  11    9.91   -0.53    0.06    0.12   -0.12    0.00    0.00       9.44    0.65   -0.63
#  12  -11.03   -0.92    0.75    0.19    0.05    0.00    0.00     -10.97    1.12    0.29
#  13  -14.12   -0.67    0.04   -0.19    0.56    0.00    0.00     -14.38   -0.78    2.32
#  14    4.53   -0.43    0.02   -0.10   -0.12    0.00    0.00       3.90   -0.40   -0.47
#  15   -0.83   -0.99    0.14    0.06   -0.10    0.00    0.00      -1.73    0.18   -0.31
#  16   -2.32   -1.62    0.39    0.23   -0.21    0.00    0.00      -3.53    0.55   -0.51
#  17   -1.87   -2.23    0.83    0.27   -0.23    0.00    0.00      -3.23    0.59   -0.51
#  18   -0.22   -1.69    0.61    0.03   -0.11    0.00    0.00      -1.39    0.06   -0.27
#  19   -2.16   -0.94    0.12    0.29    0.09    0.00    0.00      -2.61    0.81    0.25
#  20    0.11   -0.06    0.00   -0.02   -0.01    0.00    0.00       0.02   -0.55   -0.26
#  21   -0.32   -0.17    0.01    0.03   -0.03    0.00    0.00      -0.49    0.33   -0.39
#  22   -0.40   -0.15    0.01    0.01   -0.02    0.00    0.00      -0.56    0.17   -0.34
#  23   -0.45   -0.21    0.01    0.05   -0.04    0.00    0.00      -0.63    0.56   -0.46
#  24    0.35   -0.40    0.02    0.03   -0.05    0.00    0.00      -0.05    0.16   -0.30
#  25   -2.00   -0.63    0.11    1.32    0.13    0.00    0.00      -1.07    6.27    0.62
#  26    0.40   -1.17    0.47   -0.53   -0.04    0.00    0.00      -0.86   -1.66   -0.12
#  27   -1.26   -0.57    0.04    0.42   -0.05    0.00    0.00      -1.43    1.39   -0.18
#  28   -2.85   -0.67    0.06    1.11   -0.07    0.00    0.00      -2.42    3.56   -0.24
#  29   14.37   -1.18    0.18   -5.47   -0.06    0.00    0.00       7.84  -15.56   -0.16
#  30  -23.70   -2.26    1.57   11.85   -0.17    0.00    0.00     -12.71   28.44   -0.41
#  31  -27.85   -1.30    0.33   10.59   -0.15    0.00    0.00     -18.38   30.35   -0.43
#  32    0.09   -2.31    1.61   -0.16   -0.05    0.00    0.00      -0.82   -0.42   -0.12
#  33   -2.03   -1.94    2.20    2.53    0.08    0.00    0.00       0.85    8.67    0.27
#  34    0.76   -0.67    0.12   -0.15   -0.06    0.00    0.00       0.00   -0.73   -0.30
#  35   -0.64   -0.43    0.06    0.60   -0.06    0.00    0.00      -0.46    4.23   -0.41
#  36    2.33   -0.74    0.27   -2.25   -0.03    0.00    0.00      -0.42  -14.03   -0.17
#  37   -4.57   -0.37    0.04    2.58   -0.05    0.00    0.00      -2.37   18.65   -0.33
#  38   -0.63   -1.60    1.39    5.42   -0.12    0.00    0.00       4.46   27.32   -0.59
#  39    0.13   -0.01    0.00    0.01    0.00    0.00    0.00       0.13    0.72   -0.18
#  40    0.09   -0.01    0.00    0.03    0.00    0.00    0.00       0.10    1.96   -0.22
#  41    0.12   -0.01    0.00    0.02    0.00    0.00    0.00       0.12    1.29   -0.28
#  42    0.55   -0.08    0.02    0.02   -0.02    0.00    0.00       0.49    0.21   -0.20
#  43    0.26   -0.02    0.00    0.03   -0.01    0.00    0.00       0.26    1.28   -0.27
#  44    0.19   -0.01    0.00    0.04   -0.01    0.00    0.00       0.20    1.97   -0.28
#  45    0.17   -0.05    0.00    0.07   -0.01    0.00    0.00       0.18    1.48   -0.28
#  46    0.25   -0.58    0.71    0.35   -0.08    0.00    0.00       0.64    1.20   -0.28
#  47    1.79   -0.46    0.15    0.31   -0.07    0.00    0.00       1.72    0.97   -0.22
#  48    7.07   -0.01    0.00    0.25    0.08    0.00    0.00       7.38    1.33    0.43
#  49    2.19   -0.09    0.00   -0.02   -0.03    0.00    0.00       2.06   -0.20   -0.28
#  50    2.92   -0.16    0.01   -0.04   -0.05    0.00    0.00       2.68   -0.25   -0.28
#  51    2.12   -0.37    0.10   -0.08   -0.09    0.00    0.00       1.67   -0.26   -0.28
#  52    0.66   -0.59    0.24   -0.07   -0.13    0.00    0.00       0.11   -0.14   -0.28
#  53    1.58   -0.30    0.06    0.17   -0.09    0.00    0.00       1.42    0.54   -0.28
#  54    0.15   -0.02    0.00   -0.02    0.00    0.00    0.00       0.11   -0.89   -0.23
#  55    0.20   -0.01    0.00   -0.01    0.00    0.00    0.00       0.18   -0.84   -0.26
#  56    0.19   -0.02    0.00    0.01    0.00    0.00    0.00       0.18    0.54   -0.18
#  57    0.41   -0.03    0.00   -0.04   -0.01    0.00    0.00       0.34   -1.27   -0.28
#  58    0.55   -0.94    1.25   -0.62   -0.10    0.00    0.00       0.14   -1.75   -0.28
#  59    1.47   -0.10    0.01   -0.12   -0.03    0.00    0.00       1.23   -1.29   -0.28
#  60    1.33   -0.22    0.02   -0.41   -0.06    0.00    0.00       0.66   -2.00   -0.28
#  61    0.49   -0.40    0.11   -0.71   -0.09    0.00    0.00      -0.60   -2.32   -0.28
#  62    0.84   -0.13    0.01   -0.31   -0.04    0.00    0.00       0.37   -2.27   -0.27
#  63    0.55   -1.05    1.15   -1.23   -0.12    0.00    0.00      -0.70   -2.84   -0.28
#  64    0.05   -1.47    3.73   -0.77   -0.13    0.00    0.00       1.40   -1.64   -0.28

@<TRIPOS>MOLECULE
       AVX38789_0        77
   64    67     0     0     0



@<TRIPOS>ATOM
      1 C1         16.4256   -14.6709    13.0502 C.3        1          -0.0637
      2 N1         16.2094   -16.1134    13.2249 N.4        1          -0.3785
      3 H1         16.9159   -16.6233    12.7159 H          1           0.4148
      4 C2         14.8806   -16.4748    12.7132 C.3        1           0.0363
      5 C3         14.7945   -16.1275    11.2492 C.ar       1          -0.0825
      6 C4         14.3561   -14.8786    10.8595 C.ar       1          -0.0991
      7 C5         14.2765   -14.5582     9.5161 C.ar       1          -0.0860
      8 C6         14.6354   -15.4866     8.5547 C.ar       1          -0.1021
      9 C7         15.0757   -16.7384     8.9308 C.ar       1          -0.0800
     10 C8         15.1636   -17.0663    10.2848 C.ar       1          -0.1215
     11 C9         15.6401   -18.4043    10.6954 C.2        1           0.5563
     12 O1         15.2336   -18.9044    11.7259 O.2        1          -0.5388
     13 N2         16.5252   -19.0696     9.9269 N.am       1          -0.7113
     14 C10        16.9974   -20.3954    10.3336 C.3        1           0.2006
     15 C11        18.3991   -20.6079     9.8227 C.2        1          -0.0506
     16 C12        19.1429   -21.7142    10.0030 C.2        1          -0.1740
     17 C13        20.3816   -21.4839     9.3616 C.2        1          -0.2174
     18 C14        20.3207   -20.2509     8.8276 C.2        1          -0.0234
     19 O2         19.1155   -19.7272     9.1051 O.3        1          -0.1717
     20 C15        16.2934   -16.4520    14.6518 C.3        1           0.0710
     21 C16        16.5642   -17.9266    14.8032 C.ar       1          -0.1013
     22 C17        15.8523   -18.6673    15.7203 C.ar       1          -0.1663
     23 C18        16.0957   -20.0231    15.8663 C.ar       1          -0.1057
     24 C19        17.0580   -20.6500    15.0913 C.ar       1           0.0512
     25 O3         17.2876   -21.9823    15.2502 O.3        1          -0.2969
     26 C20        17.9851   -22.6450    14.1908 C.3        1           0.0495
     27 C21        17.0739   -22.7719    12.9683 C.3        1          -0.0830
     28 C22        16.1205   -23.9525    13.1634 C.3        1          -0.1800
     29 C23        15.2229   -24.0777    11.9594 C.2        1           0.4905
     30 O4         15.5622   -24.7709    11.0155 O.co2      1          -0.6991
     31 O5         14.1574   -23.4858    11.9292 O.co2      1          -0.7072
     32 C24        19.2087   -21.7895    13.8413 C.3        1           0.0169
     33 O6         18.7280   -20.5187    13.3918 O.3        1          -0.2553
     34 C25        17.7841   -19.9170    14.1597 C.ar       1           0.1023
     35 C26        17.5351   -18.5454    14.0081 C.ar       1          -0.1170
     36 C27        18.2946   -17.7600    13.0218 C.2        1           0.5227
     37 O7         17.8754   -17.6442    11.8785 O.co2      1          -0.6965
     38 O8         19.3451   -17.2231    13.3456 O.co2      1          -0.6417
     39 H2         15.6626   -14.1199    13.5998 H          1           0.1321
     40 H3         17.4116   -14.4028    13.4297 H          1           0.1092
     41 H4         16.3633   -14.4197    11.9912 H          1           0.1215
     42 H5         14.7203   -17.5451    12.8427 H          1           0.1588
     43 H6         14.1175   -15.9239    13.2627 H          1           0.1319
     44 H7         14.0741   -14.1498    11.6050 H          1           0.1427
     45 H8         13.9323   -13.5794     9.2163 H          1           0.1394
     46 H9         14.5703   -15.2304     7.5075 H          1           0.1389
     47 H10        15.3557   -17.4620     8.1795 H          1           0.1339
     48 H11        16.8496   -18.6704     9.1045 H          1           0.4062
     49 H12        16.9927   -20.4648    11.4214 H          1           0.1096
     50 H13        16.3395   -21.1586     9.9181 H          1           0.0948
     51 H14        18.8502   -22.6066    10.5361 H          1           0.1536
     52 H15        21.2166   -22.1670     9.3104 H          1           0.1532
     53 H16        21.1063   -19.7658     8.2674 H          1           0.2069
     54 H17        17.1021   -15.8848    15.1127 H          1           0.1568
     55 H18        15.3511   -16.2034    15.1403 H          1           0.1423
     56 H19        15.0999   -18.1881    16.3293 H          1           0.1094
     57 H20        15.5322   -20.5948    16.5888 H          1           0.1344
     58 H21        18.3036   -23.6343    14.5192 H          1           0.0819
     59 H22        16.4969   -21.8551    12.8484 H          1           0.0740
     60 H23        17.6809   -22.9384    12.0784 H          1           0.0867
     61 H24        16.6975   -24.8695    13.2834 H          1           0.0560
     62 H25        15.5135   -23.7862    14.0534 H          1           0.0629
     63 H26        19.8329   -21.6576    14.7252 H          1           0.1245
     64 H27        19.7822   -22.2700    13.0485 H          1           0.0763
@<TRIPOS>BOND
     1    1    2 1
     2    1   39 1
     3    1   40 1
     4    1   41 1
     5    2    3 1
     6    2    4 1
     7    2   20 1
     8    4    5 1
     9    4   42 1
    10    4   43 1
    11    5   10 ar
    12    5    6 ar
    13    6    7 ar
    14    6   44 1
    15    7    8 ar
    16    7   45 1
    17    8    9 ar
    18    8   46 1
    19    9   10 ar
    20    9   47 1
    21   10   11 1
    22   11   12 2
    23   11   13 am
    24   13   14 1
    25   13   48 1
    26   14   15 1
    27   14   49 1
    28   14   50 1
    29   15   19 1
    30   15   16 2
    31   16   17 1
    32   16   51 1
    33   17   18 2
    34   17   52 1
    35   18   19 1
    36   18   53 1
    37   20   21 1
    38   20   54 1
    39   20   55 1
    40   21   35 ar
    41   21   22 ar
    42   22   23 ar
    43   22   56 1
    44   23   24 ar
    45   23   57 1
    46   24   34 ar
    47   24   25 1
    48   25   26 1
    49   26   27 1
    50   26   32 1
    51   26   58 1
    52   27   28 1
    53   27   59 1
    54   27   60 1
    55   28   29 1
    56   28   61 1
    57   28   62 1
    58   29   30 1
    59   29   31 2
    60   32   33 1
    61   32   63 1
    62   32   64 1
    63   33   34 1
    64   34   35 ar
    65   35   36 1
    66   36   37 1
    67   36   38 2
