AVX38784_5, 3
##########                 Name:           AVX38784_0
##########          Protonation:                   23
##########               SMILES:   CC[C@@H](C)NC(=O)c1ccccc1CN(C)Cc2ccc3c(c2C(=O)[O-])OC[C@H](O3)CCC(=O)[O-]
##########            Long Name:   ]methyl]-2-(3-oxido-3-oxo-propyl)-2,3-dihydro-1,4-benzodioxine-5-carboxylate
##########          FlexRecCode: 1
##########               Number:                   36
##########   Ligand Source File: /raid1/people/rgc/Examples/sampl4/screening/ligands/build_1//sampl4-hivint-00000
##########           GlobalRank: 82
##########                 Rank:                    1
##########               Setnum:                    2
##########             Matchnum:                16426
##########                Cloud:                    1
##########        Electrostatic:           -59.109249
##########        Van der Waals:           -12.715972
##########  Ligand Polar Desolv:            36.115028
########## Ligand Apolar Desolv:            -2.972136
##########      Internal Energy:             0.000000
##########      Receptor Energy: 0.0
########## Receptor Desolvation:             0.000000
########## Receptor Hydrophobic:             0.000000
##########         Total Energy: -38.68
##########        Ligand Charge:            -2.000000
##########            Arbitrary:    +999.9990
##########     heavy atom count:   35
##########           pose count:    1
##########        Ligand Energy:             0.000000
# num electro vdwattr vdwrepu polsolv apolsol rdesolv rhydroe totalscore fullpol fullapo
#   1   -0.39   -0.65    0.22    0.38   -0.05    0.00    0.00      -0.49    1.67   -0.20
#   2   -0.25   -0.18    0.01    0.10   -0.03    0.00    0.00      -0.35    0.82   -0.24
#   3    0.31   -0.21    0.01   -0.21   -0.03    0.00    0.00      -0.14   -1.66   -0.25
#   4   -0.24   -0.11    0.00    0.09   -0.01    0.00    0.00      -0.27    1.69   -0.19
#   5   -3.03   -0.39    0.07    1.12    0.22    0.00    0.00      -2.00    9.44    1.82
#   6    7.83   -0.54    0.14   -1.73   -0.10    0.00    0.00       5.61  -11.29   -0.64
#   7   -9.50   -0.58    0.03    3.78    0.08    0.00    0.00      -6.19   15.79    0.32
#   8   -2.41   -0.51    0.15    0.52   -0.06    0.00    0.00      -2.31    3.52   -0.41
#   9   -1.20   -0.79    0.74    0.10   -0.06    0.00    0.00      -1.20    0.73   -0.44
#  10   -1.55   -0.42    0.06    0.21   -0.07    0.00    0.00      -1.76    1.45   -0.47
#  11   -1.03   -0.71    0.10    0.49   -0.11    0.00    0.00      -1.25    2.13   -0.47
#  12   -1.16   -1.04    0.54    0.95   -0.09    0.00    0.00      -0.80    4.04   -0.38
#  13    0.05   -0.50    0.05    0.32   -0.07    0.00    0.00      -0.15    1.78   -0.39
#  14    1.59   -0.40    0.03   -0.99   -0.06    0.00    0.00       0.16   -4.31   -0.28
#  15   -9.47   -1.04    0.16    5.53    0.64    0.00    0.00      -4.18   16.91    1.95
#  16    0.29   -1.35    0.55   -0.37   -0.19    0.00    0.00      -1.06   -0.91   -0.45
#  17    3.41   -1.25    0.75   -1.53   -0.12    0.00    0.00       1.26   -3.97   -0.31
#  18   -1.72   -1.01    0.11    0.42   -0.11    0.00    0.00      -2.32    1.20   -0.32
#  19   -3.10   -0.99    0.08    0.80   -0.15    0.00    0.00      -3.37    2.21   -0.41
#  20   -2.55   -1.04    0.09    0.68   -0.16    0.00    0.00      -2.98    1.98   -0.46
#  21    0.83   -0.89    0.09   -0.06   -0.09    0.00    0.00      -0.12   -0.20   -0.30
#  22   -5.52   -0.84    0.10    3.08    0.19    0.00    0.00      -2.99    9.82    0.62
#  23    1.05   -0.67    0.11   -0.68   -0.04    0.00    0.00      -0.22   -2.23   -0.12
#  24   -0.71   -1.11    0.45    0.51   -0.06    0.00    0.00      -0.92    1.67   -0.18
#  25    0.17   -0.95    0.40    1.13   -0.06    0.00    0.00       0.68    4.78   -0.25
#  26    1.22   -0.35    0.01   -2.48   -0.02    0.00    0.00      -1.62  -18.79   -0.16
#  27   -1.30   -0.18    0.00    3.00   -0.04    0.00    0.00       1.48   32.83   -0.41
#  28   -2.00   -0.26    0.01    3.99   -0.05    0.00    0.00       1.70   34.89   -0.43
#  29    0.69   -1.44    0.92   -0.19   -0.05    0.00    0.00      -0.07   -0.48   -0.12
#  30  -13.16   -4.36   10.47    4.61    0.10    0.00    0.00      -2.34   12.60    0.27
#  31    3.36   -1.74    1.32   -0.42   -0.09    0.00    0.00       2.43   -1.38   -0.30
#  32   -4.98   -1.46    0.50    2.83   -0.15    0.00    0.00      -3.25    7.84   -0.41
#  33   26.08   -2.16    0.79   -9.99   -0.08    0.00    0.00      14.65  -22.60   -0.17
#  34  -32.14   -2.51    1.75   12.84   -0.13    0.00    0.00     -20.19   31.51   -0.32
#  35  -35.71   -2.93    1.14   20.77   -0.32    0.00    0.00     -17.04   38.03   -0.59
#  36    0.11   -0.14    0.02   -0.12   -0.04    0.00    0.00      -0.17   -0.82   -0.28
#  37    0.20   -0.33    0.10   -0.06   -0.08    0.00    0.00      -0.18   -0.21   -0.28
#  38    0.19   -0.36    0.37   -0.07   -0.05    0.00    0.00       0.09   -0.39   -0.26
#  39    0.12   -0.04    0.00   -0.03   -0.01    0.00    0.00       0.04   -0.81   -0.28
#  40    0.11   -0.02    0.00   -0.01   -0.01    0.00    0.00       0.07   -0.73   -0.28
#  41    0.65   -0.12    0.01   -0.05   -0.03    0.00    0.00       0.46   -0.43   -0.26
#  42    0.10   -0.04    0.00   -0.03   -0.01    0.00    0.00       0.02   -0.91   -0.28
#  43    0.09   -0.03    0.00    0.00   -0.01    0.00    0.00       0.05    0.04   -0.28
#  44    0.08   -0.01    0.00   -0.02    0.00    0.00    0.00       0.04   -0.99   -0.28
#  45    1.14    0.00    0.00   -0.24    0.03    0.00    0.00       0.92   -4.04    0.45
#  46    0.53   -0.27    0.39   -0.25   -0.03    0.00    0.00       0.36   -2.03   -0.22
#  47    0.89   -0.05    0.00   -0.11   -0.01    0.00    0.00       0.71   -2.15   -0.28
#  48    0.96   -0.21    0.03   -0.61   -0.06    0.00    0.00       0.11   -2.75   -0.28
#  49    1.55   -0.54    1.06   -0.50   -0.05    0.00    0.00       1.51   -2.17   -0.22
#  50    1.64   -0.12    0.01   -0.05   -0.03    0.00    0.00       1.44   -0.36   -0.25
#  51    0.53   -0.12    0.01   -0.19   -0.03    0.00    0.00       0.21   -1.69   -0.22
#  52    0.97   -0.87    1.95   -0.81   -0.09    0.00    0.00       1.15   -1.94   -0.22
#  53    1.12   -0.72    0.59   -0.49   -0.10    0.00    0.00       0.40   -1.17   -0.23
#  54    0.14   -0.24    0.03   -0.40   -0.08    0.00    0.00      -0.56   -1.35   -0.28
#  55    3.96   -0.53    0.54   -0.34   -0.06    0.00    0.00       3.57   -1.17   -0.20
#  56    0.38   -0.84    1.44   -0.93   -0.12    0.00    0.00      -0.06   -2.17   -0.27
#  57    1.86   -0.26    0.03   -1.14   -0.07    0.00    0.00       0.43   -4.55   -0.28
#  58    1.50   -0.37    0.08   -1.31   -0.08    0.00    0.00      -0.18   -4.55   -0.28
#  59    1.39   -0.19    0.07   -0.40   -0.04    0.00    0.00       0.83   -2.66   -0.28
#  60    0.97   -0.27    0.14   -0.71   -0.06    0.00    0.00       0.06   -3.10   -0.28
#  61    0.40   -1.11    2.08   -0.61   -0.10    0.00    0.00       0.66   -1.67   -0.28
#  62   -0.51   -0.51    0.54   -0.56   -0.06    0.00    0.00      -1.09   -2.67   -0.27
#  63   -0.13   -0.37    0.13   -0.75   -0.07    0.00    0.00      -1.18   -3.20   -0.28
#  64    2.38   -0.31    0.04   -0.95   -0.11    0.00    0.00       1.04   -2.32   -0.28
#  65    3.82   -0.74    0.96   -1.74   -0.10    0.00    0.00       2.20   -4.66   -0.28

@<TRIPOS>MOLECULE
       AVX38784_0        23
   65    67     0     0     0



@<TRIPOS>ATOM
      1 C1         11.5952   -17.0153    12.4293 C.3        1          -0.1550
      2 C2         12.4031   -15.7656    12.0737 C.3        1          -0.1290
      3 C3         13.6123   -16.1645    11.2253 C.3        1           0.1402
      4 C4         14.4204   -14.9149    10.8697 C.3        1          -0.1627
      5 N1         14.4558   -17.0922    11.9830 N.am       1          -0.7274
      6 C5         15.1845   -18.0227    11.3351 C.2        1           0.5620
      7 O1         15.1419   -18.0921    10.1223 O.2        1          -0.5273
      8 C6         16.0357   -18.9590    12.0997 C.ar       1          -0.1527
      9 C7         15.6702   -19.3442    13.3907 C.ar       1          -0.0952
     10 C8         16.4686   -20.2184    14.0984 C.ar       1          -0.1429
     11 C9         17.6299   -20.7132    13.5314 C.ar       1          -0.0967
     12 C10        17.9980   -20.3356    12.2525 C.ar       1          -0.0934
     13 C11        17.2052   -19.4663    11.5316 C.ar       1           0.0034
     14 C12        17.6048   -19.0603    10.1363 C.3        1           0.1073
     15 N2         18.0277   -20.2484     9.3830 N.3        1          -0.5106
     16 C13        18.8516   -19.8727     8.2264 C.3        1           0.0188
     17 C14        16.8679   -21.0477     8.9656 C.3        1           0.1152
     18 C15        16.3942   -21.8881    10.1233 C.ar       1          -0.0543
     19 C16        17.3057   -22.5700    10.8984 C.ar       1          -0.1373
     20 C17        16.8777   -23.3461    11.9627 C.ar       1          -0.1256
     21 C18        15.5277   -23.4463    12.2608 C.ar       1           0.0304
     22 O2         15.1307   -24.2222    13.3068 O.3        1          -0.3047
     23 C19        13.8060   -24.0033    13.8035 C.3        1           0.0508
     24 C20        13.3981   -25.1634    14.7140 C.3        1          -0.0809
     25 C21        14.3719   -25.2552    15.8904 C.3        1          -0.1793
     26 C22        14.3382   -23.9672    16.6721 C.2        1           0.4919
     27 O3         13.2963   -23.5902    17.1810 O.co2      1          -0.7016
     28 O4         15.3526   -23.3024    16.7959 O.co2      1          -0.7116
     29 C23        12.8501   -23.9249    12.6054 C.3        1           0.0193
     30 O5         13.2688   -22.8414    11.7684 O.3        1          -0.2595
     31 C24        14.5953   -22.7618    11.4907 C.ar       1           0.0783
     32 C25        15.0286   -21.9719    10.4152 C.ar       1          -0.1156
     33 C26        14.0507   -21.2397     9.5944 C.2        1           0.5274
     34 O6         13.7305   -20.0983     9.8971 O.co2      1          -0.6691
     35 O7         13.5579   -21.7724     8.6094 O.co2      1          -0.6773
     36 H1         10.7337   -16.7312    13.0336 H          1           0.0535
     37 H2         11.2533   -17.4995    11.5145 H          1           0.0573
     38 H3         12.2227   -17.7055    12.9929 H          1           0.0579
     39 H4         11.7755   -15.0754    11.5100 H          1           0.0753
     40 H5         12.7449   -15.2816    12.9886 H          1           0.0648
     41 H6         13.2705   -16.6485    10.3104 H          1           0.0897
     42 H7         15.2818   -15.1992    10.2653 H          1           0.0536
     43 H8         13.7929   -14.2246    10.3060 H          1           0.0622
     44 H9         14.7624   -14.4307    11.7845 H          1           0.0620
     45 H10        14.4897   -17.0368    12.9507 H          1           0.3958
     46 H11        14.7644   -18.9581    13.8345 H          1           0.1155
     47 H12        16.1869   -20.5172    15.0973 H          1           0.1192
     48 H13        18.2519   -21.3969    14.0902 H          1           0.1223
     49 H14        18.9057   -20.7251    11.8160 H          1           0.1497
     50 H15        16.7551   -18.5963     9.6357 H          1           0.0985
     51 H16        18.4295   -18.3495    10.1867 H          1           0.0562
     52 H17        19.1511   -20.7710     7.6865 H          1           0.0565
     53 H18        18.2755   -19.2261     7.5646 H          1           0.0681
     54 H19        19.7398   -19.3423     8.5698 H          1           0.0140
     55 H20        16.0648   -20.3833     8.6464 H          1           0.1192
     56 H21        17.1530   -21.6970     8.1378 H          1           0.0121
     57 H22        18.3600   -22.4996    10.6748 H          1           0.1141
     58 H23        17.6007   -23.8771    12.5641 H          1           0.1211
     59 H24        13.7728   -23.0683    14.3627 H          1           0.0742
     60 H25        12.3892   -24.9929    15.0898 H          1           0.0808
     61 H26        13.4225   -26.0949    14.1485 H          1           0.0709
     62 H27        14.0813   -26.0816    16.5389 H          1           0.0643
     63 H28        15.3808   -25.4257    15.5145 H          1           0.0548
     64 H29        12.8869   -24.8586    12.0441 H          1           0.0676
     65 H30        11.8338   -23.7465    12.9570 H          1           0.1134
@<TRIPOS>BOND
     1    1    2 1
     2    1   36 1
     3    1   37 1
     4    1   38 1
     5    2    3 1
     6    2   39 1
     7    2   40 1
     8    3    4 1
     9    3    5 1
    10    3   41 1
    11    4   42 1
    12    4   43 1
    13    4   44 1
    14    5    6 am
    15    5   45 1
    16    6    7 2
    17    6    8 1
    18    8   13 ar
    19    8    9 ar
    20    9   10 ar
    21    9   46 1
    22   10   11 ar
    23   10   47 1
    24   11   12 ar
    25   11   48 1
    26   12   13 ar
    27   12   49 1
    28   13   14 1
    29   14   15 1
    30   14   50 1
    31   14   51 1
    32   15   16 1
    33   15   17 1
    34   16   52 1
    35   16   53 1
    36   16   54 1
    37   17   18 1
    38   17   55 1
    39   17   56 1
    40   18   32 ar
    41   18   19 ar
    42   19   20 ar
    43   19   57 1
    44   20   21 ar
    45   20   58 1
    46   21   31 ar
    47   21   22 1
    48   22   23 1
    49   23   24 1
    50   23   29 1
    51   23   59 1
    52   24   25 1
    53   24   60 1
    54   24   61 1
    55   25   26 1
    56   25   62 1
    57   25   63 1
    58   26   27 1
    59   26   28 2
    60   29   30 1
    61   29   64 1
    62   29   65 1
    63   30   31 1
    64   31   32 ar
    65   32   33 1
    66   33   34 1
    67   33   35 2
