AVX38741_1, 3
##########                 Name:           AVX38741_0
##########          Protonation:                   97
##########               SMILES:   c1ccc(cc1)CN2CN(Cc3ccccc3C2=O)Cc4ccc5c(c4C(=O)[O-])OC[C@H](O5)CCC(=O)[O-]
##########            Long Name:   )methyl]-2-(3-oxido-3-oxo-propyl)-2,3-dihydro-1,4-benzodioxine-5-carboxylate
##########          FlexRecCode: 1
##########               Number:                  149
##########   Ligand Source File: /raid1/people/rgc/Examples/sampl4/screening/ligands/build_1//sampl4-hivint-00000
##########           GlobalRank: 96
##########                 Rank:                    1
##########               Setnum:                   24
##########             Matchnum:                18531
##########                Cloud:                    1
##########        Electrostatic:           -49.635536
##########        Van der Waals:           -13.181325
##########  Ligand Polar Desolv:            28.279037
########## Ligand Apolar Desolv:            -2.199517
##########      Internal Energy:             0.000000
##########      Receptor Energy: 0.0
########## Receptor Desolvation:             0.000000
########## Receptor Hydrophobic:             0.000000
##########         Total Energy: -36.74
##########        Ligand Charge:            -2.000000
##########            Arbitrary:    +999.9990
##########     heavy atom count:   38
##########           pose count:    1
##########        Ligand Energy:             0.000000
# num electro vdwattr vdwrepu polsolv apolsol rdesolv rhydroe totalscore fullpol fullapo
#   1  -25.41   -2.75    2.53   13.72   -0.17    0.00    0.00     -12.08   32.56   -0.41
#   2   20.43   -2.68    1.62   -8.37   -0.07    0.00    0.00      10.93  -18.58   -0.16
#   3  -36.58   -3.26    2.62   17.10   -0.21    0.00    0.00     -20.34   34.73   -0.43
#   4   -5.79   -1.27    0.36    2.06   -0.11    0.00    0.00      -4.74    4.70   -0.24
#   5   -1.82   -0.55    0.03    0.57   -0.06    0.00    0.00      -1.83    1.67   -0.18
#   6    1.29   -0.43    0.03   -0.55   -0.03    0.00    0.00       0.31   -2.18   -0.12
#   7    0.30   -0.40    0.03   -0.12   -0.03    0.00    0.00      -0.22   -0.51   -0.12
#   8   -3.83   -0.42    0.05    2.08    0.05    0.00    0.00      -2.07   11.93    0.27
#   9    1.29   -0.60    0.08   -0.26   -0.06    0.00    0.00       0.46   -1.26   -0.30
#  10   -1.02   -0.44    0.03    1.15   -0.07    0.00    0.00      -0.34    6.98   -0.41
#  11    2.26   -0.24    0.01   -1.97   -0.02    0.00    0.00       0.04  -20.90   -0.17
#  12   -1.47   -0.21    0.01    3.28   -0.05    0.00    0.00       1.55   35.85   -0.59
#  13   -1.78   -0.19    0.01    2.43   -0.03    0.00    0.00       0.44   27.72   -0.32
#  14   -0.36   -0.65    0.06    0.24   -0.07    0.00    0.00      -0.78    1.10   -0.32
#  15    0.16   -0.31    0.03   -0.55   -0.05    0.00    0.00      -0.72   -3.51   -0.30
#  16    1.67   -1.61    1.46    2.93    0.58    0.00    0.00       5.02   14.27    2.82
#  17   -0.74   -0.89    0.67   -1.58   -0.25    0.00    0.00      -2.79   -7.66   -1.19
#  18   -0.74   -0.27    0.01    1.35    0.17    0.00    0.00       0.53   12.84    1.62
#  19    0.21   -0.12    0.01   -0.25   -0.03    0.00    0.00      -0.18   -2.97   -0.42
#  20   -0.15   -0.11    0.00    0.11   -0.02    0.00    0.00      -0.17    2.38   -0.38
#  21   -0.13   -0.04    0.00    0.04   -0.01    0.00    0.00      -0.14    2.51   -0.45
#  22   -0.16   -0.04    0.00    0.03   -0.01    0.00    0.00      -0.18    2.04   -0.47
#  23   -0.21   -0.10    0.00    0.06   -0.02    0.00    0.00      -0.27    1.39   -0.47
#  24   -0.28   -0.28    0.04    0.18   -0.05    0.00    0.00      -0.40    1.74   -0.47
#  25   -0.20   -0.30    0.05    0.21   -0.04    0.00    0.00      -0.29    2.09   -0.45
#  26    0.61   -0.13    0.00   -0.63   -0.03    0.00    0.00      -0.18  -12.15   -0.54
#  27   -0.55   -0.05    0.00    0.31    0.01    0.00    0.00      -0.29   12.92    0.39
#  28   -0.12   -0.15    0.00    0.18   -0.02    0.00    0.00      -0.11    3.37   -0.33
#  29   -0.06   -0.08    0.00    0.04   -0.01    0.00    0.00      -0.12    1.29   -0.46
#  30   -0.10   -0.10    0.00    0.05   -0.02    0.00    0.00      -0.17    1.28   -0.47
#  31   -0.07   -0.32    0.03    0.12   -0.05    0.00    0.00      -0.28    1.24   -0.47
#  32   -0.08   -0.56    0.07    0.44   -0.07    0.00    0.00      -0.20    2.71   -0.45
#  33   -0.03   -0.34    0.01    0.23   -0.04    0.00    0.00      -0.17    1.78   -0.34
#  34   -0.14   -0.61    0.11   -0.58   -0.08    0.00    0.00      -1.30   -2.48   -0.33
#  35   -1.01   -2.01    1.46    0.65   -0.13    0.00    0.00      -1.04    2.15   -0.42
#  36   -2.06   -1.57    0.70    0.70   -0.16    0.00    0.00      -2.39    2.04   -0.46
#  37    0.72   -0.79    0.06   -0.04   -0.09    0.00    0.00      -0.14   -0.15   -0.30
#  38   -7.81   -0.69    0.04    3.08    0.20    0.00    0.00      -5.19    9.66    0.62
#  39    1.98   -0.52    0.35   -1.25   -0.11    0.00    0.00       0.45   -3.14   -0.28
#  40    1.84   -0.57    0.29   -1.21   -0.13    0.00    0.00       0.22   -2.60   -0.27
#  41    1.16   -0.22    0.02   -0.38   -0.07    0.00    0.00       0.51   -1.62   -0.28
#  42    1.59   -0.13    0.01   -0.39   -0.04    0.00    0.00       1.04   -3.02   -0.28
#  43    2.59   -0.19    0.09   -0.37   -0.04    0.00    0.00       2.08   -2.58   -0.28
#  44    0.73   -0.20    0.02   -0.49   -0.06    0.00    0.00       0.00   -2.22   -0.28
#  45    1.51   -0.10    0.01   -0.46   -0.03    0.00    0.00       0.94   -4.45   -0.28
#  46    0.02   -0.04    0.00   -0.06   -0.01    0.00    0.00      -0.08   -1.92   -0.26
#  47    0.28   -0.07    0.00   -0.15   -0.02    0.00    0.00       0.05   -1.90   -0.20
#  48   -0.35   -0.25    0.10   -0.42   -0.05    0.00    0.00      -0.98   -2.03   -0.26
#  49   -0.67   -0.56    0.88   -0.42   -0.06    0.00    0.00      -0.83   -1.77   -0.24
#  50    0.14   -0.07    0.01   -0.11   -0.02    0.00    0.00      -0.05   -1.68   -0.26
#  51    0.11   -0.02    0.00   -0.03    0.00    0.00    0.00       0.06   -1.73   -0.27
#  52    0.14    0.00    0.00   -0.02    0.00    0.00    0.00       0.11   -2.07   -0.28
#  53    0.14    0.00    0.00   -0.01    0.00    0.00    0.00       0.12   -2.08   -0.28
#  54    0.19   -0.02    0.00   -0.03    0.00    0.00    0.00       0.14   -1.78   -0.28
#  55    0.31   -0.12    0.03   -0.23   -0.03    0.00    0.00      -0.04   -1.90   -0.28
#  56    0.35   -0.16    0.08   -0.21   -0.03    0.00    0.00       0.04   -1.96   -0.26
#  57    0.10   -0.01    0.00   -0.02    0.00    0.00    0.00       0.07   -2.31   -0.28
#  58    0.08   -0.01    0.00   -0.02    0.00    0.00    0.00       0.05   -2.00   -0.28
#  59    0.07   -0.09    0.02   -0.18   -0.02    0.00    0.00      -0.21   -2.24   -0.28
#  60    0.08   -0.30    0.13   -0.46   -0.05    0.00    0.00      -0.61   -2.37   -0.28
#  61   -0.48   -0.27    0.07   -0.31   -0.05    0.00    0.00      -1.04   -1.43   -0.24
#  62   -0.10   -0.22    0.02   -0.22   -0.05    0.00    0.00      -0.57   -1.07   -0.25
#  63   -0.03   -1.36    3.68   -1.40   -0.10    0.00    0.00       0.79   -4.11   -0.28
#  64    2.37   -0.48    0.38   -1.31   -0.09    0.00    0.00       0.87   -4.19   -0.28

@<TRIPOS>MOLECULE
       AVX38741_0        97
   64    68     0     0     0



@<TRIPOS>ATOM
      1 O1         15.5107   -20.3247     8.5920 O.co2      1          -0.7014
      2 C1         15.5149   -21.5222     8.8211 C.2        1           0.4917
      3 O2         14.4683   -22.1475     8.8155 O.co2      1          -0.7111
      4 C2         16.8144   -22.2305     9.1050 C.3        1          -0.1792
      5 C3         17.4709   -21.6151    10.3425 C.3        1          -0.0812
      6 C4         16.5354   -21.7649    11.5438 C.3        1           0.0508
      7 C5         17.2015   -21.1762    12.7949 C.3        1           0.0193
      8 O3         16.3077   -21.3466    13.9005 O.3        1          -0.2594
      9 C6         15.7336   -22.5691    14.0386 C.ar       1           0.0795
     10 C7         15.1545   -22.9241    15.2662 C.ar       1          -0.1139
     11 C8         15.1736   -21.9786    16.3938 C.2        1           0.5297
     12 O4         16.1082   -21.9869    17.1834 O.co2      1          -0.6727
     13 O5         14.2552   -21.1842    16.5417 O.co2      1          -0.6761
     14 C9         14.5586   -24.1814    15.4130 C.ar       1          -0.0612
     15 C10        13.9340   -24.5711    16.7279 C.3        1           0.1116
     16 N1         14.3400   -25.9390    17.0766 N.3        1          -0.4937
     17 C11        13.2718   -26.6370    17.7889 C.3        1           0.2798
     18 N2         12.9071   -26.0901    19.0813 N.am       1          -0.6187
     19 C12        11.4884   -26.1686    19.4387 C.3        1           0.1501
     20 C13        10.7808   -24.9266    18.9617 C.ar       1          -0.1005
     21 C14        10.6946   -23.8204    19.7860 C.ar       1          -0.1010
     22 C15        10.0455   -22.6811    19.3484 C.ar       1          -0.1237
     23 C16         9.4827   -22.6479    18.0863 C.ar       1          -0.1217
     24 C17         9.5696   -23.7538    17.2615 C.ar       1          -0.1293
     25 C18        10.2225   -24.8916    17.6974 C.ar       1          -0.0961
     26 C19        13.6911   -25.5377    19.9624 C.2        1           0.5675
     27 O6         13.1582   -25.4076    21.0471 O.2        1          -0.5396
     28 C20        15.0605   -25.0398    19.9465 C.ar       1          -0.1296
     29 C21        15.4724   -24.3322    21.0963 C.ar       1          -0.0725
     30 C22        16.7374   -23.8093    21.1945 C.ar       1          -0.1314
     31 C23        17.6328   -23.9721    20.1518 C.ar       1          -0.0988
     32 C24        17.2457   -24.6636    19.0243 C.ar       1          -0.1027
     33 C25        15.9700   -25.2047    18.9122 C.ar       1          -0.0393
     34 C26        15.6731   -25.9558    17.6494 C.3        1           0.0877
     35 C27        14.5428   -25.0623    14.3546 C.ar       1          -0.1370
     36 C28        15.1160   -24.7116    13.1435 C.ar       1          -0.1244
     37 C29        15.7121   -23.4707    12.9816 C.ar       1           0.0340
     38 O7         16.2767   -23.1524    11.7843 O.3        1          -0.3040
     39 H1         16.6204   -23.2878     9.2846 H          1           0.0549
     40 H2         17.4810   -22.1236     8.2492 H          1           0.0643
     41 H3         18.4109   -22.1275    10.5478 H          1           0.0712
     42 H4         17.6652   -20.5577    10.1628 H          1           0.0814
     43 H5         15.5979   -21.2450    11.3466 H          1           0.0750
     44 H6         18.1366   -21.6994    12.9942 H          1           0.0684
     45 H7         17.3986   -20.1152    12.6417 H          1           0.1144
     46 H8         14.2665   -23.8839    17.5059 H          1           0.0159
     47 H9         12.8483   -24.5251    16.6422 H          1           0.1243
     48 H10        12.3840   -26.6345    17.1566 H          1           0.1055
     49 H11        13.5802   -27.6724    17.9333 H          1           0.0857
     50 H12        11.0430   -27.0446    18.9669 H          1           0.0863
     51 H13        11.3905   -26.2497    20.5212 H          1           0.0903
     52 H14        11.1343   -23.8463    20.7722 H          1           0.1273
     53 H15         9.9776   -21.8172    19.9929 H          1           0.1210
     54 H16         8.9748   -21.7581    17.7447 H          1           0.1164
     55 H17         9.1296   -23.7280    16.2755 H          1           0.1166
     56 H18        10.2936   -25.7543    17.0516 H          1           0.1258
     57 H19        14.7793   -24.2003    21.9140 H          1           0.1252
     58 H20        17.0334   -23.2718    22.0834 H          1           0.1243
     59 H21        18.6284   -23.5593    20.2212 H          1           0.1250
     60 H22        17.9471   -24.7879    18.2123 H          1           0.1324
     61 H23        15.9349   -26.9989    17.8262 H          1           0.0913
     62 H24        16.3567   -25.5849    16.8856 H          1           0.0401
     63 H25        14.0813   -26.0319    14.4696 H          1           0.1138
     64 H26        15.0985   -25.4098    12.3197 H          1           0.1222
@<TRIPOS>BOND
     1    1    2 1
     2    2    3 2
     3    2    4 1
     4    4    5 1
     5    4   39 1
     6    4   40 1
     7    5    6 1
     8    5   41 1
     9    5   42 1
    10    6   38 1
    11    6    7 1
    12    6   43 1
    13    7    8 1
    14    7   44 1
    15    7   45 1
    16    8    9 1
    17    9   37 ar
    18    9   10 ar
    19   10   11 1
    20   10   14 ar
    21   11   12 1
    22   11   13 2
    23   14   15 1
    24   14   35 ar
    25   15   16 1
    26   15   46 1
    27   15   47 1
    28   16   34 1
    29   16   17 1
    30   17   18 1
    31   17   48 1
    32   17   49 1
    33   18   19 1
    34   18   26 am
    35   19   20 1
    36   19   50 1
    37   19   51 1
    38   20   25 ar
    39   20   21 ar
    40   21   22 ar
    41   21   52 1
    42   22   23 ar
    43   22   53 1
    44   23   24 ar
    45   23   54 1
    46   24   25 ar
    47   24   55 1
    48   25   56 1
    49   26   27 2
    50   26   28 1
    51   28   33 ar
    52   28   29 ar
    53   29   30 ar
    54   29   57 1
    55   30   31 ar
    56   30   58 1
    57   31   32 ar
    58   31   59 1
    59   32   33 ar
    60   32   60 1
    61   33   34 1
    62   34   61 1
    63   34   62 1
    64   35   36 ar
    65   35   63 1
    66   36   37 ar
    67   36   64 1
    68   37   38 1
