AVX38749_0, 3
##########                 Name:           AVX38749_0
##########          Protonation:                  100
##########               SMILES:   (c1)C[C@H]([C@H]2Cc3ccc4c(c3C(=O)[O-])OC[C@H](O4)CCC(=O)[O-])NC(=O)CCC[NH3+]
##########            Long Name:   ]methyl]-2-(3-oxido-3-oxo-propyl)-2,3-dihydro-1,4-benzodioxine-5-carboxylate
##########          FlexRecCode: 1
##########               Number:                  438
##########   Ligand Source File: /raid1/people/rgc/Examples/sampl4/screening/ligands/build_1//sampl4-hivint-00000
##########           GlobalRank: 89
##########                 Rank:                    1
##########               Setnum:                   19
##########             Matchnum:                 7099
##########                Cloud:                    1
##########        Electrostatic:           -52.181953
##########        Van der Waals:           -17.773533
##########  Ligand Polar Desolv:            35.214046
########## Ligand Apolar Desolv:            -3.249922
##########      Internal Energy:             0.000000
##########      Receptor Energy: 0.0
########## Receptor Desolvation:             0.000000
########## Receptor Hydrophobic:             0.000000
##########         Total Energy: -37.99
##########        Ligand Charge:            -1.000000
##########            Arbitrary:    +999.9990
##########     heavy atom count:   35
##########           pose count:    1
##########        Ligand Energy:             0.000000
# num electro vdwattr vdwrepu polsolv apolsol rdesolv rhydroe totalscore fullpol fullapo
#   1   -1.04   -0.10    0.00   -0.52    0.04    0.00    0.00      -1.61  -12.43    0.86
#   2    0.60    0.00    0.00    0.17    0.01    0.00    0.00       0.78    7.94    0.58
#   3    0.88    0.00    0.00    0.24    0.01    0.00    0.00       1.13   11.83    0.59
#   4    1.48    0.00    0.00    0.31    0.02    0.00    0.00       1.81   10.03    0.58
#   5   -0.01   -0.05    0.00    0.02   -0.02    0.00    0.00      -0.05    0.71   -0.49
#   6   -0.13   -0.08    0.00   -0.02   -0.01    0.00    0.00      -0.24   -0.43   -0.20
#   7   -0.10   -0.06    0.00    0.00   -0.01    0.00    0.00      -0.16    0.02   -0.24
#   8    0.37   -0.12    0.00   -0.21   -0.03    0.00    0.00       0.02   -5.00   -0.61
#   9   -0.35   -0.11    0.00    0.58    0.02    0.00    0.00       0.14   12.56    0.37
#  10   -0.57   -0.25    0.01    0.56    0.15    0.00    0.00      -0.10    5.56    1.44
#  11    0.12   -0.23    0.01   -0.26   -0.04    0.00    0.00      -0.39   -2.01   -0.31
#  12   -0.07   -0.48    0.21    0.02   -0.04    0.00    0.00      -0.36    0.15   -0.27
#  13   -0.15   -1.20    0.92    0.16   -0.10    0.00    0.00      -0.38    0.70   -0.43
#  14   -0.15   -1.38    0.97    0.13   -0.13    0.00    0.00      -0.56    0.46   -0.47
#  15   -0.24   -1.25    0.20    0.31   -0.18    0.00    0.00      -1.16    0.82   -0.47
#  16   -0.30   -1.27    0.13    0.79   -0.20    0.00    0.00      -0.85    1.87   -0.47
#  17   -0.29   -1.50    0.66    0.91   -0.14    0.00    0.00      -0.35    2.66   -0.40
#  18   -0.16   -0.94    0.18    0.55   -0.10    0.00    0.00      -0.46    2.03   -0.35
#  19   -0.11   -0.40    0.04    0.22   -0.04    0.00    0.00      -0.29    1.10   -0.18
#  20   -0.09   -0.63    0.16    0.11   -0.03    0.00    0.00      -0.49    0.50   -0.16
#  21   -0.45   -1.05    0.21    0.42   -0.10    0.00    0.00      -0.97    1.40   -0.32
#  22   -0.79   -1.71    0.47    0.50   -0.15    0.00    0.00      -1.68    1.30   -0.39
#  23   -1.43   -1.88    0.90    0.98   -0.20    0.00    0.00      -1.62    2.30   -0.46
#  24    0.68   -1.31    0.27   -0.11   -0.11    0.00    0.00      -0.59   -0.29   -0.30
#  25   -4.68   -1.45    0.28    3.90    0.29    0.00    0.00      -1.67    8.40    0.62
#  26    1.11   -0.86    0.10   -0.76   -0.05    0.00    0.00      -0.46   -1.73   -0.12
#  27   -2.73   -1.22    0.35    0.60   -0.08    0.00    0.00      -3.08    1.40   -0.18
#  28   -7.37   -0.96    0.28    1.58   -0.09    0.00    0.00      -6.56    4.22   -0.25
#  29   24.74   -2.38    0.97   -7.80   -0.07    0.00    0.00      15.46  -16.84   -0.16
#  30  -33.24   -2.66    1.41   14.13   -0.20    0.00    0.00     -20.56   29.36   -0.41
#  31  -38.37   -3.41    3.67   17.98   -0.24    0.00    0.00     -20.36   31.97   -0.43
#  32    0.43   -0.60    0.06   -0.20   -0.04    0.00    0.00      -0.35   -0.64   -0.12
#  33   -4.87   -0.56    0.07    2.41    0.13    0.00    0.00      -2.83   10.91    0.61
#  34    0.80   -1.01    0.41   -0.06   -0.08    0.00    0.00       0.05   -0.24   -0.30
#  35   -0.92   -0.84    0.27    1.33   -0.09    0.00    0.00      -0.25    5.71   -0.40
#  36    3.77   -0.45    0.06   -2.88   -0.02    0.00    0.00       0.48  -19.59   -0.11
#  37   -2.77   -0.61    0.15    4.12   -0.07    0.00    0.00       0.82   25.63   -0.42
#  38   -4.87   -0.23    0.00    3.21   -0.04    0.00    0.00      -1.93   30.23   -0.39
#  39    0.12   -0.01    0.00    0.02    0.00    0.00    0.00       0.13    1.85   -0.28
#  40    0.13   -0.02    0.00    0.08   -0.01    0.00    0.00       0.19    3.95   -0.28
#  41    0.09   -0.05    0.00    0.01   -0.01    0.00    0.00       0.04    0.29   -0.28
#  42    0.10   -0.02    0.00    0.00   -0.01    0.00    0.00       0.07   -0.21   -0.28
#  43    0.08   -0.02    0.00    0.00   -0.01    0.00    0.00       0.05   -0.05   -0.28
#  44    0.06   -0.01    0.00    0.02    0.00    0.00    0.00       0.07    1.37   -0.28
#  45    0.33   -0.01    0.00   -0.07    0.05    0.00    0.00       0.30   -0.83    0.57
#  46    0.07   -0.05    0.00   -0.03   -0.01    0.00    0.00      -0.03   -0.75   -0.27
#  47    0.08   -0.34    0.47   -0.04   -0.04    0.00    0.00       0.12   -0.26   -0.26
#  48    0.07   -0.07    0.00   -0.03   -0.02    0.00    0.00      -0.05   -0.39   -0.28
#  49    0.15   -0.20    0.07   -0.08   -0.05    0.00    0.00      -0.11   -0.49   -0.28
#  50    0.22   -0.27    0.03   -0.26   -0.08    0.00    0.00      -0.35   -0.94   -0.28
#  51    0.24   -0.30    0.03   -0.57   -0.10    0.00    0.00      -0.69   -1.63   -0.28
#  52    0.55   -0.89    2.98   -0.21   -0.07    0.00    0.00       2.36   -0.80   -0.27
#  53    0.16   -0.16    0.04    0.17   -0.03    0.00    0.00       0.17    1.17   -0.23
#  54    0.16   -0.10    0.01   -0.09   -0.02    0.00    0.00      -0.03   -0.92   -0.21
#  55    0.00   -0.60    0.70   -0.44   -0.06    0.00    0.00      -0.40   -1.84   -0.27
#  56    0.71   -0.61    0.34   -1.05   -0.10    0.00    0.00      -0.71   -2.85   -0.28
#  57    1.33   -0.99    3.27   -1.23   -0.11    0.00    0.00       2.27   -3.18   -0.28
#  58    1.64   -0.42    0.13   -0.72   -0.10    0.00    0.00       0.53   -1.96   -0.28
#  59    2.59   -0.43    0.33   -0.71   -0.08    0.00    0.00       1.71   -2.57   -0.28
#  60    2.77   -0.88    0.70   -0.74   -0.14    0.00    0.00       1.72   -1.53   -0.28
#  61    2.71   -0.37    0.25   -0.57   -0.07    0.00    0.00       1.96   -2.26   -0.27
#  62    2.02   -0.18    0.04   -0.43   -0.05    0.00    0.00       1.41   -2.60   -0.28
#  63    1.48   -0.12    0.00   -0.23   -0.03    0.00    0.00       1.10   -2.00   -0.28
#  64    1.21   -0.33    0.09   -1.03   -0.08    0.00    0.00      -0.15   -3.55   -0.28

@<TRIPOS>MOLECULE
       AVX38749_0       100
   64    67     0     0     0



@<TRIPOS>ATOM
      1 N1         15.5093   -15.1344    11.5605 N.4        1          -0.6365
      2 H1         14.6711   -14.6217    11.3311 H          1           0.4406
      3 H2         15.3746   -15.6271    12.4307 H          1           0.4331
      4 H3         15.7099   -15.7971    10.8266 H          1           0.4330
      5 C1         16.6339   -14.1991    11.6964 C.3        1          -0.0066
      6 C2         16.8381   -13.4522    10.3767 C.3        1          -0.1408
      7 C3         18.0094   -12.4780    10.5181 C.3        1          -0.1335
      8 C4         19.2613   -13.2439    10.8610 C.2        1           0.5111
      9 O1         19.5512   -13.4436    12.0214 O.2        1          -0.5093
     10 N2         20.0584   -13.7068     9.8778 N.am       1          -0.7191
     11 C5         21.2753   -14.4514    10.2110 C.3        1           0.1546
     12 C6         22.3262   -14.3157     9.0888 C.3        1          -0.0792
     13 C7         23.0287   -15.6557     9.0400 C.ar       1          -0.1083
     14 C8         24.2382   -16.0146     8.4685 C.ar       1          -0.1101
     15 C9         24.6858   -17.3185     8.5502 C.ar       1          -0.1256
     16 C10        23.9247   -18.2694     9.2044 C.ar       1          -0.1158
     17 C11        22.7185   -17.9135     9.7749 C.ar       1          -0.0873
     18 C12        22.2680   -16.6064     9.6940 C.ar       1          -0.0678
     19 C13        21.0019   -15.9705    10.2271 C.3        1          -0.0656
     20 C14        19.8165   -16.3061     9.3198 C.3        1          -0.0422
     21 C15        19.5992   -17.7973     9.3086 C.ar       1          -0.0829
     22 C16        20.2440   -18.5806     8.3774 C.ar       1          -0.1141
     23 C17        20.0503   -19.9522     8.3609 C.ar       1          -0.1343
     24 C18        19.2061   -20.5520     9.2812 C.ar       1           0.0504
     25 O2         19.0299   -21.9016     9.2537 O.3        1          -0.3010
     26 C19        17.8845   -22.4141     9.9419 C.3        1           0.0515
     27 C20        16.6124   -22.0588     9.1695 C.3        1          -0.0816
     28 C21        15.4054   -22.1485    10.1055 C.3        1          -0.1798
     29 C22        14.1525   -21.7986     9.3448 C.2        1           0.4915
     30 O3         14.0414   -20.7012     8.8252 O.co2      1          -0.7015
     31 O4         13.2502   -22.6127     9.2489 O.co2      1          -0.7081
     32 C23        17.8513   -21.7605    11.3284 C.3        1           0.0253
     33 O5         17.7145   -20.3493    11.1330 O.3        1          -0.2960
     34 C24        18.5467   -19.7754    10.2271 C.ar       1           0.0602
     35 C25        18.7464   -18.3876    10.2478 C.ar       1          -0.1041
     36 C26        18.0590   -17.5560    11.2488 C.2        1           0.5521
     37 O6         18.5900   -17.3342    12.3285 O.co2      1          -0.7033
     38 O7         16.9567   -17.0866    11.0014 O.co2      1          -0.6736
     39 H4         16.4173   -13.4832    12.4892 H          1           0.1353
     40 H5         17.5393   -14.7530    11.9442 H          1           0.1292
     41 H6         17.0546   -14.1682     9.5838 H          1           0.0908
     42 H7         15.9327   -12.8983    10.1288 H          1           0.1093
     43 H8         18.1549   -11.9459     9.5781 H          1           0.1053
     44 H9         17.7929   -11.7621    11.3111 H          1           0.0945
     45 H10        19.8265   -13.5470     8.9496 H          1           0.3976
     46 H11        21.6804   -14.1206    11.1674 H          1           0.1001
     47 H12        21.8379   -14.1098     8.1363 H          1           0.0814
     48 H13        23.0364   -13.5249     9.3294 H          1           0.0774
     49 H14        24.8330   -15.2723     7.9569 H          1           0.1141
     50 H15        25.6291   -17.5952     8.1031 H          1           0.1194
     51 H16        24.2730   -19.2896     9.2690 H          1           0.1223
     52 H17        22.1245   -18.6569    10.2858 H          1           0.1223
     53 H18        20.8082   -16.3092    11.2448 H          1           0.1082
     54 H19        18.9207   -15.8111     9.6946 H          1           0.0793
     55 H20        20.0253   -15.9617     8.3070 H          1           0.0571
     56 H21        20.9043   -18.1229     7.6556 H          1           0.1165
     57 H22        20.5601   -20.5574     7.6260 H          1           0.1249
     58 H23        17.9664   -23.4965    10.0418 H          1           0.0773
     59 H24        16.6954   -21.0442     8.7798 H          1           0.0824
     60 H25        16.4830   -22.7562     8.3419 H          1           0.0721
     61 H26        15.3225   -23.1632    10.4952 H          1           0.0646
     62 H27        15.5348   -21.4510    10.9331 H          1           0.0556
     63 H28        17.0016   -22.1397    11.8962 H          1           0.0715
     64 H29        18.7790   -21.9725    11.8599 H          1           0.1163
@<TRIPOS>BOND
     1    1    2 1
     2    1    3 1
     3    1    4 1
     4    1    5 1
     5    5    6 1
     6    5   39 1
     7    5   40 1
     8    6    7 1
     9    6   41 1
    10    6   42 1
    11    7    8 1
    12    7   43 1
    13    7   44 1
    14    8    9 2
    15    8   10 am
    16   10   11 1
    17   10   45 1
    18   11   19 1
    19   11   12 1
    20   11   46 1
    21   12   13 1
    22   12   47 1
    23   12   48 1
    24   13   18 ar
    25   13   14 ar
    26   14   15 ar
    27   14   49 1
    28   15   16 ar
    29   15   50 1
    30   16   17 ar
    31   16   51 1
    32   17   18 ar
    33   17   52 1
    34   18   19 1
    35   19   20 1
    36   19   53 1
    37   20   21 1
    38   20   54 1
    39   20   55 1
    40   21   35 ar
    41   21   22 ar
    42   22   23 ar
    43   22   56 1
    44   23   24 ar
    45   23   57 1
    46   24   34 ar
    47   24   25 1
    48   25   26 1
    49   26   27 1
    50   26   32 1
    51   26   58 1
    52   27   28 1
    53   27   59 1
    54   27   60 1
    55   28   29 1
    56   28   61 1
    57   28   62 1
    58   29   30 1
    59   29   31 2
    60   32   33 1
    61   32   63 1
    62   32   64 1
    63   33   34 1
    64   34   35 ar
    65   35   36 1
    66   36   37 1
    67   36   38 2
