AVX38708_1, 3
##########                 Name:           AVX38708_0
##########          Protonation:                   24
##########               SMILES:   CN(Cc1ccccc1C(=O)NCc2ccccc2)Cc3ccc4c(c3C(=O)[O-])OCO4
##########            Long Name:   lcarbamoyl)phenyl]methyl-methyl-amino]methyl]-1,3-benzodioxole-4-carboxylate
##########          FlexRecCode: 1
##########               Number:                  122
##########   Ligand Source File: /raid1/people/rgc/Examples/sampl4/screening/ligands/build_1//sampl4-hivint-00000
##########           GlobalRank: 30
##########                 Rank:                    1
##########               Setnum:                  237
##########             Matchnum:                21640
##########                Cloud:                    1
##########        Electrostatic:           -45.645401
##########        Van der Waals:           -20.810028
##########  Ligand Polar Desolv:            24.314198
########## Ligand Apolar Desolv:            -2.241786
##########      Internal Energy:             0.000000
##########      Receptor Energy: 0.0
########## Receptor Desolvation:             0.000000
########## Receptor Hydrophobic:             0.000000
##########         Total Energy: -44.38
##########        Ligand Charge:            -1.000000
##########            Arbitrary:    +999.9990
##########     heavy atom count:   32
##########           pose count:    1
##########        Ligand Energy:             0.000000
# num electro vdwattr vdwrepu polsolv apolsol rdesolv rhydroe totalscore fullpol fullapo
#   1    0.10   -0.16    0.00   -0.03   -0.04    0.00    0.00      -0.13   -0.34   -0.43
#   2   -2.78   -0.64    0.05    1.95    0.39    0.00    0.00      -1.02    9.75    1.96
#   3    0.10   -0.59    0.11   -0.37   -0.07    0.00    0.00      -0.82   -1.76   -0.31
#   4   -0.01   -0.46    0.04    0.09   -0.05    0.00    0.00      -0.38    0.66   -0.32
#   5   -0.10   -0.62    0.10    0.19   -0.07    0.00    0.00      -0.51    1.16   -0.42
#   6   -0.08   -0.30    0.02    0.03   -0.05    0.00    0.00      -0.38    0.28   -0.47
#   7   -0.10   -0.12    0.00    0.01   -0.02    0.00    0.00      -0.23    0.26   -0.47
#   8   -0.06   -0.09    0.00    0.01   -0.02    0.00    0.00      -0.16    0.38   -0.44
#   9   -0.10   -0.18    0.01    0.13   -0.03    0.00    0.00      -0.17    1.65   -0.41
#  10    0.49   -0.14    0.00   -0.43   -0.04    0.00    0.00      -0.11   -7.73   -0.65
#  11   -0.41   -0.05    0.00    0.31    0.01    0.00    0.00      -0.14   12.26    0.31
#  12   -0.69   -0.30    0.02    0.71    0.23    0.00    0.00      -0.03    7.10    2.32
#  13    0.16   -0.12    0.00   -0.18   -0.04    0.00    0.00      -0.18   -2.04   -0.44
#  14   -0.10   -0.42    0.03    0.16   -0.06    0.00    0.00      -0.38    1.03   -0.37
#  15   -0.11   -0.62    0.15    0.15   -0.08    0.00    0.00      -0.51    0.87   -0.45
#  16   -0.13   -1.21    0.71    0.15   -0.11    0.00    0.00      -0.59    0.64   -0.47
#  17   -0.10   -1.30    0.37    0.14   -0.14    0.00    0.00      -1.04    0.47   -0.47
#  18   -0.11   -1.36    0.57    0.19   -0.14    0.00    0.00      -0.84    0.66   -0.47
#  19   -0.09   -0.77    0.15    0.19   -0.10    0.00    0.00      -0.60    0.90   -0.45
#  20    1.55   -0.99    0.19   -1.36   -0.09    0.00    0.00      -0.70   -4.31   -0.28
#  21   -0.48   -1.43    0.46    0.31   -0.12    0.00    0.00      -1.26    0.97   -0.39
#  22   -1.33   -1.25    0.22    0.45   -0.13    0.00    0.00      -2.04    1.31   -0.38
#  23   -1.37   -1.24    0.23    0.25   -0.17    0.00    0.00      -2.30    0.69   -0.47
#  24   -0.13   -1.25    0.17   -0.10   -0.13    0.00    0.00      -1.43   -0.25   -0.33
#  25   -4.61   -1.79    0.57    2.45    0.25    0.00    0.00      -3.14    5.14    0.52
#  26    4.08   -1.26    0.39   -1.42    0.01    0.00    0.00       1.79   -3.16    0.02
#  27   -8.48   -1.12    0.14    4.05    0.14    0.00    0.00      -5.27    9.83    0.34
#  28    1.88   -1.22    0.26   -0.27   -0.12    0.00    0.00       0.53   -0.74   -0.32
#  29   -3.44   -1.51    0.76    2.34   -0.13    0.00    0.00      -1.99    7.17   -0.41
#  30   19.25   -1.74    0.45   -7.71   -0.07    0.00    0.00      10.18  -19.41   -0.17
#  31  -28.63   -1.78    1.43   10.29   -0.11    0.00    0.00     -18.80   29.95   -0.33
#  32  -29.97   -4.27    3.69   16.29   -0.28    0.00    0.00     -14.54   32.86   -0.56
#  33    0.19   -0.05    0.00   -0.01   -0.01    0.00    0.00       0.12   -0.34   -0.28
#  34    0.19   -0.03    0.00   -0.02   -0.01    0.00    0.00       0.13   -0.86   -0.22
#  35    0.31   -0.04    0.00   -0.05   -0.01    0.00    0.00       0.21   -1.42   -0.24
#  36    0.12   -0.68    0.74   -0.35   -0.06    0.00    0.00      -0.21   -1.25   -0.20
#  37    0.05   -0.09    0.01   -0.04   -0.02    0.00    0.00      -0.10   -0.45   -0.27
#  38    0.10   -0.26    0.13   -0.18   -0.05    0.00    0.00      -0.27   -1.10   -0.28
#  39    0.10   -0.06    0.00   -0.02   -0.02    0.00    0.00       0.00   -0.29   -0.28
#  40    0.08   -0.01    0.00    0.00    0.00    0.00    0.00       0.06    0.00   -0.28
#  41    0.08   -0.01    0.00   -0.01    0.00    0.00    0.00       0.06   -0.48   -0.22
#  42    0.37   -0.01    0.00   -0.29    0.05    0.00    0.00       0.11   -2.66    0.43
#  43    0.09   -0.03    0.00   -0.02   -0.01    0.00    0.00       0.04   -0.57   -0.28
#  44    0.06   -0.01    0.00   -0.01    0.00    0.00    0.00       0.03   -0.66   -0.28
#  45    0.15   -0.08    0.01   -0.07   -0.02    0.00    0.00      -0.02   -0.89   -0.28
#  46    0.13   -0.26    0.11   -0.09   -0.05    0.00    0.00      -0.16   -0.46   -0.28
#  47    0.09   -0.32    0.08   -0.09   -0.08    0.00    0.00      -0.31   -0.30   -0.28
#  48    0.10   -0.58    0.84   -0.15   -0.08    0.00    0.00       0.14   -0.49   -0.28
#  49    0.10   -0.15    0.03   -0.12   -0.04    0.00    0.00      -0.17   -0.89   -0.28
#  50    1.15   -0.22    0.02   -0.03   -0.05    0.00    0.00       0.87   -0.14   -0.22
#  51    1.18   -0.80    0.49   -0.23   -0.10    0.00    0.00       0.54   -0.57   -0.25
#  52    0.80   -0.31    0.13   -0.70   -0.05    0.00    0.00      -0.14   -3.17   -0.22
#  53    1.08   -0.26    0.06   -0.68   -0.07    0.00    0.00       0.13   -2.56   -0.28
#  54    2.50   -0.79    0.85   -1.07   -0.12    0.00    0.00       1.37   -2.53   -0.28
#  55    1.15   -0.29    0.05   -0.45   -0.07    0.00    0.00       0.38   -1.79   -0.28

@<TRIPOS>MOLECULE
       AVX38708_0        24
   55    58     0     0     0



@<TRIPOS>ATOM
      1 C1         16.4462   -16.4735    10.7911 C.3        1           0.0178
      2 N1         16.8377   -16.4394     9.3756 N.3        1          -0.5264
      3 C2         16.4636   -15.1607     8.7567 C.3        1           0.0878
      4 C3         17.4834   -14.1112     9.1162 C.ar       1          -0.0097
      5 C4         18.8303   -14.4002     9.0377 C.ar       1          -0.1229
      6 C5         19.7676   -13.4378     9.3674 C.ar       1          -0.0967
      7 C6         19.3621   -12.1800     9.7777 C.ar       1          -0.1335
      8 C7         18.0188   -11.8778     9.8598 C.ar       1          -0.0911
      9 C8         17.0677   -12.8428     9.5237 C.ar       1          -0.1141
     10 C9         15.6262   -12.5240     9.6040 C.2        1           0.5512
     11 O1         15.1362   -12.1887    10.6646 O.2        1          -0.4904
     12 N2         14.8557   -12.6053     8.5013 N.am       1          -0.7301
     13 C10        13.4273   -12.2893     8.5810 C.3        1           0.1620
     14 C11        12.7992   -12.4567     7.2212 C.ar       1          -0.1042
     15 C12        11.4706   -12.8230     7.1140 C.ar       1          -0.1015
     16 C13        10.8946   -12.9766     5.8668 C.ar       1          -0.1236
     17 C14        11.6474   -12.7640     4.7268 C.ar       1          -0.1156
     18 C15        12.9753   -12.3962     4.8343 C.ar       1          -0.1226
     19 C16        13.5503   -12.2385     6.0815 C.ar       1          -0.0996
     20 C17        16.2553   -17.5704     8.6410 C.3        1           0.1226
     21 C18        17.0773   -18.8085     8.8907 C.ar       1          -0.0272
     22 C19        18.4520   -18.7444     8.8404 C.ar       1          -0.1135
     23 C20        19.2153   -19.8777     9.0693 C.ar       1          -0.1086
     24 C21        18.6053   -21.0882     9.3513 C.ar       1          -0.0073
     25 O2         19.1245   -22.3246     9.6090 O.3        1          -0.3208
     26 C22        18.0553   -23.0689    10.2226 C.3        1           0.2049
     27 O3         16.8647   -22.4529     9.6968 O.3        1          -0.2788
     28 C23        17.2162   -21.1702     9.4060 C.ar       1           0.0722
     29 C24        16.4443   -20.0226     9.1798 C.ar       1          -0.1265
     30 C25        14.9756   -20.0951     9.2404 C.2        1           0.5222
     31 O4         14.3965   -19.8954    10.2994 O.co2      1          -0.6821
     32 O5         14.3338   -20.3550     8.2319 O.co2      1          -0.6751
     33 H1         16.7349   -17.4310    11.2249 H          1           0.0221
     34 H2         16.9470   -15.6666    11.3262 H          1           0.0680
     35 H3         15.3666   -16.3486    10.8727 H          1           0.0585
     36 H4         16.4290   -15.2779     7.6735 H          1           0.1111
     37 H5         15.4829   -14.8543     9.1205 H          1           0.0348
     38 H6         19.1533   -15.3801     8.7187 H          1           0.1264
     39 H7         20.8206   -13.6693     9.3047 H          1           0.1235
     40 H8         20.0990   -11.4333    10.0342 H          1           0.1237
     41 H9         17.7036   -10.8958    10.1801 H          1           0.1211
     42 H10        15.2466   -12.8728     7.6549 H          1           0.3952
     43 H11        12.9452   -12.9630     9.2892 H          1           0.0800
     44 H12        13.3010   -11.2595     8.9151 H          1           0.0767
     45 H13        10.8828   -12.9896     8.0045 H          1           0.1240
     46 H14         9.8567   -13.2634     5.7830 H          1           0.1223
     47 H15        11.1966   -12.8838     3.7527 H          1           0.1211
     48 H16        13.5632   -12.2300     3.9437 H          1           0.1230
     49 H17        14.5871   -11.9480     6.1653 H          1           0.1257
     50 H18        15.2336   -17.7377     8.9819 H          1           0.0732
     51 H19        16.2502   -17.3467     7.5741 H          1           0.0947
     52 H20        18.9380   -17.8052     8.6208 H          1           0.1419
     53 H21        20.2928   -19.8166     9.0271 H          1           0.1203
     54 H22        18.1036   -24.1185     9.9325 H          1           0.1213
     55 H23        18.0917   -22.9681    11.3073 H          1           0.0723
@<TRIPOS>BOND
     1    1    2 1
     2    1   33 1
     3    1   34 1
     4    1   35 1
     5    2    3 1
     6    2   20 1
     7    3    4 1
     8    3   36 1
     9    3   37 1
    10    4    9 ar
    11    4    5 ar
    12    5    6 ar
    13    5   38 1
    14    6    7 ar
    15    6   39 1
    16    7    8 ar
    17    7   40 1
    18    8    9 ar
    19    8   41 1
    20    9   10 1
    21   10   11 2
    22   10   12 am
    23   12   13 1
    24   12   42 1
    25   13   14 1
    26   13   43 1
    27   13   44 1
    28   14   19 ar
    29   14   15 ar
    30   15   16 ar
    31   15   45 1
    32   16   17 ar
    33   16   46 1
    34   17   18 ar
    35   17   47 1
    36   18   19 ar
    37   18   48 1
    38   19   49 1
    39   20   21 1
    40   20   50 1
    41   20   51 1
    42   21   29 ar
    43   21   22 ar
    44   22   23 ar
    45   22   52 1
    46   23   24 ar
    47   23   53 1
    48   24   28 ar
    49   24   25 1
    50   25   26 1
    51   26   27 1
    52   26   54 1
    53   26   55 1
    54   27   28 1
    55   28   29 ar
    56   29   30 1
    57   30   31 1
    58   30   32 2
