AVX38786_1, 3
##########                 Name:           AVX38786_0
##########          Protonation:                   77
##########               SMILES:   +](Cc1ccccc1C(=O)NCc2ccc(cc2)OC)Cc3ccc4c(c3C(=O)[O-])OC[C@@H](O4)CCC(=O)[O-]
##########            Long Name:   ]methyl]-2-(3-oxido-3-oxo-propyl)-2,3-dihydro-1,4-benzodioxine-5-carboxylate
##########          FlexRecCode: 1
##########               Number:                  757
##########   Ligand Source File: /raid1/people/rgc/Examples/sampl4/screening/ligands/build_1//sampl4-hivint-00000
##########           GlobalRank: 93
##########                 Rank:                    1
##########               Setnum:                  307
##########             Matchnum:                23291
##########                Cloud:                    1
##########        Electrostatic:           -53.392277
##########        Van der Waals:           -14.030423
##########  Ligand Polar Desolv:            32.245308
########## Ligand Apolar Desolv:            -2.248642
##########      Internal Energy:             0.000000
##########      Receptor Energy: 0.0
########## Receptor Desolvation:             0.000000
########## Receptor Hydrophobic:             0.000000
##########         Total Energy: -37.43
##########        Ligand Charge:            -1.000000
##########            Arbitrary:    +999.9990
##########     heavy atom count:   40
##########           pose count:    1
##########        Ligand Energy:             0.000000
# num electro vdwattr vdwrepu polsolv apolsol rdesolv rhydroe totalscore fullpol fullapo
#   1    0.03   -0.68    0.29    0.00    0.01    0.00    0.00      -0.35    0.01    0.03
#   2   -0.48   -1.58    1.36    0.39    0.25    0.00    0.00      -0.07    1.48    0.93
#   3    0.19   -0.54    0.07   -0.06   -0.05    0.00    0.00      -0.39   -0.37   -0.31
#   4   -0.35   -0.50    0.04    0.04   -0.07    0.00    0.00      -0.84    0.24   -0.42
#   5   -0.08   -0.18    0.00    0.00   -0.03    0.00    0.00      -0.29    0.00   -0.45
#   6   -0.17   -0.07    0.00    0.00   -0.01    0.00    0.00      -0.25    0.10   -0.37
#   7    0.16   -0.02    0.00    0.00   -0.01    0.00    0.00       0.13   -0.12   -0.44
#   8   -0.58   -0.03    0.00    0.00    0.04    0.00    0.00      -0.57   -0.18    2.32
#   9    0.47   -0.05    0.00   -0.02   -0.01    0.00    0.00       0.39   -0.87   -0.65
#  10   -0.54   -0.05    0.00    0.06    0.01    0.00    0.00      -0.52    2.34    0.32
#  11   -0.09   -0.06    0.00    0.00   -0.01    0.00    0.00      -0.15    0.07   -0.41
#  12   -0.04   -0.06    0.00    0.00   -0.01    0.00    0.00      -0.11   -0.11   -0.44
#  13   -0.06   -0.12    0.00   -0.01   -0.02    0.00    0.00      -0.20   -0.17   -0.47
#  14   -0.04   -0.16    0.00    0.00   -0.02    0.00    0.00      -0.22    0.00   -0.47
#  15   -0.10   -0.14    0.00    0.00   -0.02    0.00    0.00      -0.25    0.08   -0.34
#  16   -0.04   -0.11    0.00    0.00   -0.01    0.00    0.00      -0.16    0.04   -0.39
#  17    0.05   -0.13    0.00    0.00   -0.02    0.00    0.00      -0.10   -0.01   -0.26
#  18   -0.96   -0.21    0.01   -0.01    0.02    0.00    0.00      -1.16   -0.13    0.16
#  19    0.88    0.00    0.00   -0.06    0.01    0.00    0.00       0.83   -1.74    0.33
#  20   -0.16   -0.38    0.06   -0.07   -0.07    0.00    0.00      -0.62   -0.42   -0.41
#  21    0.36   -0.23    0.01   -0.02   -0.04    0.00    0.00       0.08   -0.13   -0.29
#  22   -1.38   -0.43    0.03    0.05   -0.05    0.00    0.00      -1.78    0.30   -0.30
#  23   -0.96   -0.48    0.08   -0.02   -0.06    0.00    0.00      -1.43   -0.13   -0.40
#  24   -1.26   -0.70    0.19    0.15   -0.09    0.00    0.00      -1.71    0.78   -0.46
#  25    0.97   -0.81    0.19    0.01   -0.07    0.00    0.00       0.30    0.06   -0.30
#  26   -3.87   -0.82    0.07    1.87    0.18    0.00    0.00      -2.56    6.31    0.62
#  27    0.85   -0.84    0.12   -0.56   -0.04    0.00    0.00      -0.48   -1.59   -0.12
#  28   -2.42   -0.61    0.06    0.44   -0.06    0.00    0.00      -2.59    1.37   -0.18
#  29   -4.29   -0.59    0.05    1.10   -0.07    0.00    0.00      -3.80    3.61   -0.24
#  30   16.70   -1.41    0.42   -5.63   -0.06    0.00    0.00      10.03  -15.59   -0.16
#  31  -28.09   -1.67    0.41   12.73   -0.18    0.00    0.00     -16.80   28.34   -0.41
#  32  -24.12   -2.42    2.41    9.96   -0.14    0.00    0.00     -14.31   30.57   -0.43
#  33    0.32   -1.23    0.38   -0.21   -0.05    0.00    0.00      -0.80   -0.48   -0.12
#  34   -5.66   -0.82    0.05    3.13    0.11    0.00    0.00      -3.20    7.97    0.27
#  35    1.61   -0.71    0.07   -0.09   -0.08    0.00    0.00       0.80   -0.37   -0.30
#  36   -1.99   -0.64    0.05    0.77   -0.09    0.00    0.00      -1.91    3.30   -0.40
#  37    9.25   -1.72    0.80   -4.14   -0.05    0.00    0.00       4.14  -12.07   -0.15
#  38  -17.09   -4.49    8.73    5.69   -0.12    0.00    0.00      -7.27   14.58   -0.30
#  39   -8.08   -2.02    0.60    9.80   -0.24    0.00    0.00       0.07   24.37   -0.59
#  40   -0.05   -0.07    0.00    0.00   -0.01    0.00    0.00      -0.13    0.14   -0.45
#  41   -0.16   -0.17    0.00    0.05   -0.04    0.00    0.00      -0.31    0.68   -0.46
#  42    0.07   -0.40    0.32    0.03   -0.08    0.00    0.00      -0.06    0.11   -0.27
#  43    0.06   -0.09    0.01    0.01   -0.02    0.00    0.00      -0.04    0.08   -0.26
#  44    0.09   -0.09    0.01    0.02   -0.04    0.00    0.00      -0.01    0.18   -0.28
#  45    0.29   -0.19    0.02    0.03   -0.04    0.00    0.00       0.11    0.15   -0.22
#  46    0.21   -0.03    0.00    0.01   -0.01    0.00    0.00       0.18    0.35   -0.28
#  47    0.07    0.00    0.00    0.00    0.00    0.00    0.00       0.06   -0.13   -0.28
#  48    0.09   -0.01    0.00    0.00    0.00    0.00    0.00       0.08   -0.03   -0.28
#  49    0.27    0.00    0.00    0.01    0.00    0.00    0.00       0.28    0.96    0.44
#  50    0.07   -0.01    0.00    0.01    0.00    0.00    0.00       0.07    0.71   -0.22
#  51    0.06   -0.03    0.00    0.01    0.00    0.00    0.00       0.04    0.58   -0.28
#  52    0.07   -0.04    0.00    0.01   -0.01    0.00    0.00       0.03    0.17   -0.28
#  53    0.09   -0.03    0.00    0.00   -0.01    0.00    0.00       0.05   -0.01   -0.18
#  54    0.14   -0.03    0.00   -0.01   -0.01    0.00    0.00       0.09   -0.36   -0.26
#  55    0.13   -0.06    0.00    0.04   -0.01    0.00    0.00       0.09    0.57   -0.23
#  56    0.48   -0.29    0.24    0.09   -0.04    0.00    0.00       0.48    0.53   -0.23
#  57    0.30   -0.11    0.01    0.24   -0.04    0.00    0.00       0.39    1.86   -0.28
#  58    0.11   -0.09    0.01    0.08   -0.02    0.00    0.00       0.08    0.83   -0.18
#  59    0.95   -0.05    0.00   -0.02   -0.01    0.00    0.00       0.87   -0.59   -0.20
#  60    0.62   -0.13    0.01    0.15   -0.04    0.00    0.00       0.61    1.05   -0.27
#  61    0.63   -0.05    0.00    0.06   -0.02    0.00    0.00       0.62    0.93   -0.28
#  62    1.07   -0.11    0.01   -0.13   -0.03    0.00    0.00       0.81   -1.22   -0.28
#  63    1.03   -0.52    0.25   -0.53   -0.09    0.00    0.00       0.14   -1.63   -0.28
#  64    2.54   -0.16    0.03   -0.21   -0.05    0.00    0.00       2.15   -1.29   -0.28
#  65    3.21   -0.37    0.23   -0.50   -0.07    0.00    0.00       2.50   -1.97   -0.28
#  66    0.88   -0.29    0.07   -0.56   -0.07    0.00    0.00       0.03   -2.28   -0.28
#  67    1.18   -0.12    0.01   -0.25   -0.03    0.00    0.00       0.78   -2.22   -0.27
#  68    1.34   -0.59    0.32   -0.98   -0.10    0.00    0.00      -0.02   -2.63   -0.28
#  69    1.62   -0.55    0.30   -0.67   -0.12    0.00    0.00       0.57   -1.57   -0.28
#  70    0.10   -0.01    0.00    0.00    0.00    0.00    0.00       0.09   -0.18   -0.28
#  71    0.12   -0.02    0.00   -0.01   -0.01    0.00    0.00       0.07   -0.49   -0.28

@<TRIPOS>MOLECULE
       AVX38786_0        77
   71    74     0     0     0



@<TRIPOS>ATOM
      1 C1         11.8495   -13.0652     6.4274 C.3        1           0.0258
      2 O1         12.3678   -14.1229     7.2367 O.3        1          -0.3161
      3 C2         12.7972   -13.7924     8.4831 C.ar       1           0.1381
      4 C3         13.3157   -14.7691     9.3210 C.ar       1          -0.2113
      5 C4         13.7518   -14.4305    10.5872 C.ar       1          -0.0580
      6 C5         13.6707   -13.1199    11.0204 C.ar       1          -0.1532
      7 C6         14.1467   -12.7535    12.4023 C.3        1           0.1661
      8 N1         15.5653   -12.3913    12.3501 N.am       1          -0.7176
      9 C7         16.5093   -13.3380    12.5209 C.2        1           0.5590
     10 O2         16.1837   -14.4923    12.7182 O.2        1          -0.5336
     11 C8         17.9409   -12.9724    12.4682 C.ar       1          -0.1206
     12 C9         18.4626   -12.0494    13.3763 C.ar       1          -0.0734
     13 C10        19.7991   -11.7130    13.3220 C.ar       1          -0.1169
     14 C11        20.6224   -12.2879    12.3699 C.ar       1          -0.0706
     15 C12        20.1117   -13.2032    11.4669 C.ar       1          -0.1431
     16 C13        18.7777   -13.5528    11.5141 C.ar       1          -0.0522
     17 C14        18.2245   -14.5545    10.5335 C.3        1           0.0506
     18 N2         18.3388   -15.9062    11.0971 N.4        1          -0.3733
     19 H1         18.1151   -15.8806    12.0807 H          1           0.4293
     20 C15        19.7125   -16.3960    10.9199 C.3        1          -0.0634
     21 C16        17.4054   -16.8055    10.4058 C.3        1           0.0590
     22 C17        17.5227   -18.1923    10.9840 C.ar       1          -0.1330
     23 C18        17.5648   -18.3683    12.3492 C.ar       1          -0.1129
     24 C19        17.6735   -19.6396    12.8886 C.ar       1          -0.1203
     25 C20        17.7408   -20.7488    12.0612 C.ar       1           0.0659
     26 O3         17.8514   -21.9907    12.6075 O.3        1          -0.2954
     27 C21        17.5291   -23.0970    11.7586 C.3        1           0.0487
     28 C22        16.0184   -23.1472    11.5217 C.3        1          -0.0829
     29 C23        15.3341   -23.7929    12.7282 C.3        1          -0.1807
     30 C24        13.8460   -23.8423    12.4949 C.2        1           0.4904
     31 O4         13.3987   -24.4546    11.5401 O.co2      1          -0.6998
     32 O5         13.0895   -23.2702    13.2609 O.co2      1          -0.7060
     33 C25        18.2580   -22.8817    10.4270 C.3        1           0.0181
     34 O6         17.7600   -21.6664     9.8583 O.3        1          -0.2585
     35 C26        17.6976   -20.5885    10.6810 C.ar       1           0.0885
     36 C27        17.5832   -19.3023    10.1342 C.ar       1          -0.1257
     37 C28        17.5323   -19.1206     8.6746 C.2        1           0.5226
     38 O7         16.4548   -19.1233     8.0951 O.co2      1          -0.7091
     39 O8         18.5673   -18.9667     8.0408 O.co2      1          -0.6285
     40 C29        13.1538   -12.1449    10.1874 C.ar       1          -0.0575
     41 C30        12.7212   -12.4774     8.9182 C.ar       1          -0.1532
     42 H2         11.5432   -13.4644     5.4605 H          1           0.0569
     43 H3         10.9897   -12.6152     6.9237 H          1           0.0573
     44 H4         12.6211   -12.3095     6.2807 H          1           0.1023
     45 H5         13.3786   -15.7930     8.9835 H          1           0.1307
     46 H6         14.1563   -15.1903    11.2397 H          1           0.1275
     47 H7         13.5691   -11.9068    12.7731 H          1           0.0821
     48 H8         14.0135   -13.6046    13.0701 H          1           0.0798
     49 H9         15.8252   -11.4701    12.1927 H          1           0.4024
     50 H10        17.8211   -11.5995    14.1195 H          1           0.1330
     51 H11        20.2041   -10.9990    14.0240 H          1           0.1375
     52 H12        21.6680   -12.0205    12.3310 H          1           0.1390
     53 H13        20.7594   -13.6480    10.7260 H          1           0.1297
     54 H14        17.1760   -14.3300    10.3375 H          1           0.1509
     55 H15        18.7879   -14.5002     9.6020 H          1           0.1474
     56 H16        19.7974   -17.3990    11.3380 H          1           0.1217
     57 H17        19.9541   -16.4236     9.8573 H          1           0.1168
     58 H18        20.4051   -15.7287    11.4328 H          1           0.1161
     59 H19        16.3862   -16.4422    10.5373 H          1           0.1659
     60 H20        17.6471   -16.8333     9.3434 H          1           0.1109
     61 H21        17.5131   -17.5102    13.0030 H          1           0.1286
     62 H22        17.7062   -19.7668    13.9606 H          1           0.1365
     63 H23        17.8623   -24.0268    12.2199 H          1           0.0829
     64 H24        15.6379   -22.1348    11.3869 H          1           0.0739
     65 H25        15.8101   -23.7356    10.6281 H          1           0.0869
     66 H26        15.7145   -24.8054    12.8630 H          1           0.0565
     67 H27        15.5423   -23.2046    13.6219 H          1           0.0635
     68 H28        19.3306   -22.7963    10.6017 H          1           0.1243
     69 H29        18.0552   -23.7154     9.7548 H          1           0.0756
     70 H30        13.0918   -11.1218    10.5278 H          1           0.1337
     71 H31        12.3210   -11.7148     8.2666 H          1           0.1344
@<TRIPOS>BOND
     1    1    2 1
     2    1   42 1
     3    1   43 1
     4    1   44 1
     5    2    3 1
     6    3   41 ar
     7    3    4 ar
     8    4    5 ar
     9    4   45 1
    10    5    6 ar
    11    5   46 1
    12    6    7 1
    13    6   40 ar
    14    7    8 1
    15    7   47 1
    16    7   48 1
    17    8    9 am
    18    8   49 1
    19    9   10 2
    20    9   11 1
    21   11   16 ar
    22   11   12 ar
    23   12   13 ar
    24   12   50 1
    25   13   14 ar
    26   13   51 1
    27   14   15 ar
    28   14   52 1
    29   15   16 ar
    30   15   53 1
    31   16   17 1
    32   17   18 1
    33   17   54 1
    34   17   55 1
    35   18   19 1
    36   18   20 1
    37   18   21 1
    38   20   56 1
    39   20   57 1
    40   20   58 1
    41   21   22 1
    42   21   59 1
    43   21   60 1
    44   22   36 ar
    45   22   23 ar
    46   23   24 ar
    47   23   61 1
    48   24   25 ar
    49   24   62 1
    50   25   35 ar
    51   25   26 1
    52   26   27 1
    53   27   28 1
    54   27   33 1
    55   27   63 1
    56   28   29 1
    57   28   64 1
    58   28   65 1
    59   29   30 1
    60   29   66 1
    61   29   67 1
    62   30   31 1
    63   30   32 2
    64   33   34 1
    65   33   68 1
    66   33   69 1
    67   34   35 1
    68   35   36 ar
    69   36   37 1
    70   37   38 1
    71   37   39 2
    72   40   41 ar
    73   40   70 1
    74   41   71 1
