AVX38672_0, 3
##########                 Name:           AVX38672_0
##########          Protonation:                  100
##########               SMILES:   CC(C)(C)NC(=O)[C@@H](c1ccccc1)NC(=O)N(C)Cc2ccc3c(c2C(=O)[O-])OCO3
##########            Long Name:   1-phenyl-ethyl]carbamoyl-methyl-amino]methyl]-1,3-benzodioxole-4-carboxylate
##########          FlexRecCode: 1
##########               Number:                  600
##########   Ligand Source File: /raid1/people/rgc/Examples/sampl4/screening/ligands/build_1//sampl4-hivint-00000
##########           GlobalRank: 79
##########                 Rank:                    1
##########               Setnum:                    9
##########             Matchnum:                 7321
##########                Cloud:                    1
##########        Electrostatic:           -45.585331
##########        Van der Waals:           -16.297066
##########  Ligand Polar Desolv:            24.112331
########## Ligand Apolar Desolv:            -1.801286
##########      Internal Energy:             0.000000
##########      Receptor Energy: 0.0
########## Receptor Desolvation:             0.000000
########## Receptor Hydrophobic:             0.000000
##########         Total Energy: -39.57
##########        Ligand Charge:            -1.000000
##########            Arbitrary:    +999.9990
##########     heavy atom count:   32
##########           pose count:    1
##########        Ligand Energy:             0.000000
# num electro vdwattr vdwrepu polsolv apolsol rdesolv rhydroe totalscore fullpol fullapo
#   1    0.75   -1.04    0.20   -0.27   -0.20    0.00    0.00      -0.55   -0.68   -0.51
#   2   -6.91   -0.90    0.09    3.18    0.36    0.00    0.00      -4.19   10.47    1.19
#   3    3.70   -0.66    0.11   -1.60   -0.09    0.00    0.00       1.46   -5.50   -0.31
#   4   -1.12   -0.70    0.04    0.35   -0.11    0.00    0.00      -1.54    1.32   -0.41
#   5   -1.75   -1.21    0.57    0.43   -0.12    0.00    0.00      -2.08    1.48   -0.42
#   6   -1.26   -1.51    0.37    0.20   -0.16    0.00    0.00      -2.36    0.61   -0.47
#   7   -0.05   -0.99    0.08   -0.08   -0.11    0.00    0.00      -1.15   -0.24   -0.33
#   8   -4.51   -1.21    0.16    1.79    0.19    0.00    0.00      -3.59    4.91    0.52
#   9    4.22   -0.65    0.07   -0.97    0.01    0.00    0.00       2.67   -3.00    0.02
#  10   -9.74   -0.94    0.15    3.00    0.11    0.00    0.00      -7.42    9.22    0.34
#  11    2.33   -0.84    0.08   -0.24   -0.09    0.00    0.00       1.24   -0.84   -0.32
#  12   -3.83   -0.84    0.08    1.93   -0.12    0.00    0.00      -2.78    6.42   -0.41
#  13   22.03   -1.49    0.31   -7.32   -0.07    0.00    0.00      13.46  -18.36   -0.17
#  14  -32.51   -2.35    2.55   10.55   -0.12    0.00    0.00     -21.89   27.86   -0.33
#  15  -31.53   -2.66    0.87   15.33   -0.27    0.00    0.00     -18.27   31.23   -0.56
#  16    4.83   -0.75    0.18   -2.56   -0.41    0.00    0.00       1.29  -12.04   -1.92
#  17   -2.40   -0.84    0.24    3.32    0.08    0.00    0.00       0.40   14.61    0.37
#  18   -4.90   -0.40    0.03    1.20    0.24    0.00    0.00      -3.83    8.48    1.68
#  19    0.50   -0.20    0.02   -0.22   -0.03    0.00    0.00       0.06   -2.00   -0.25
#  20    0.59   -0.20    0.01   -0.38   -0.04    0.00    0.00      -0.04   -4.83   -0.55
#  21   -0.39   -0.12    0.00    0.33    0.02    0.00    0.00      -0.16    6.37    0.29
#  22   -0.97   -0.33    0.01    0.48    0.24    0.00    0.00      -0.56    4.01    1.95
#  23    0.14   -0.23    0.01   -0.10   -0.02    0.00    0.00      -0.19   -0.76   -0.12
#  24   -0.13   -0.16    0.01    0.09   -0.02    0.00    0.00      -0.21    0.90   -0.16
#  25   -0.13   -1.14    0.62    0.05   -0.04    0.00    0.00      -0.64    0.20   -0.17
#  26   -0.13   -0.10    0.00    0.06   -0.01    0.00    0.00      -0.18    0.93   -0.16
#  27   -0.24   -0.14    0.00    0.07   -0.02    0.00    0.00      -0.33    1.25   -0.33
#  28   -0.09   -0.12    0.00    0.06   -0.02    0.00    0.00      -0.16    1.39   -0.44
#  29   -0.13   -0.06    0.00    0.03   -0.01    0.00    0.00      -0.17    1.29   -0.47
#  30   -0.17   -0.06    0.00    0.03   -0.01    0.00    0.00      -0.22    0.97   -0.47
#  31   -0.23   -0.13    0.01    0.06   -0.03    0.00    0.00      -0.33    0.94   -0.47
#  32   -0.36   -0.14    0.00    0.06   -0.03    0.00    0.00      -0.46    1.06   -0.45
#  33    0.37   -0.25    0.03   -0.24   -0.08    0.00    0.00      -0.17   -0.87   -0.28
#  34    0.75   -0.31    0.09   -0.30   -0.07    0.00    0.00       0.16   -0.98   -0.22
#  35    0.86   -0.65    0.31   -0.38   -0.12    0.00    0.00       0.02   -0.88   -0.28
#  36    2.03   -0.12    0.01   -0.11   -0.03    0.00    0.00       1.77   -0.88   -0.23
#  37    2.62   -0.64    1.01   -0.54   -0.07    0.00    0.00       2.38   -1.84   -0.24
#  38    1.30   -0.60    1.44   -0.61   -0.05    0.00    0.00       1.47   -2.67   -0.21
#  39    0.64   -0.68    0.38   -0.92   -0.11    0.00    0.00      -0.69   -2.40   -0.28
#  40    2.00   -0.38    0.19   -0.64   -0.08    0.00    0.00       1.10   -2.39   -0.28
#  41    1.37   -0.13    0.01   -0.21   -0.03    0.00    0.00       1.01   -1.67   -0.28
#  42    3.96    0.00    0.00   -0.23    0.02    0.00    0.00       3.74   -4.32    0.37
#  43    0.13   -0.14    0.04   -0.16   -0.03    0.00    0.00      -0.17   -1.22   -0.26
#  44    0.93   -0.01    0.00   -0.15    0.05    0.00    0.00       0.83   -1.62    0.55
#  45    0.04   -0.04    0.00   -0.01   -0.01    0.00    0.00      -0.01   -0.32   -0.28
#  46    0.04   -0.03    0.00   -0.01   -0.01    0.00    0.00       0.00   -0.40   -0.28
#  47    0.07   -0.08    0.01   -0.02   -0.02    0.00    0.00      -0.04   -0.25   -0.22
#  48    0.06   -0.21    0.03   -0.02   -0.05    0.00    0.00      -0.19   -0.10   -0.28
#  49    0.06   -0.95    2.05   -0.02   -0.08    0.00    0.00       1.05   -0.08   -0.28
#  50    0.06   -0.49    0.26   -0.03   -0.07    0.00    0.00      -0.27   -0.10   -0.28
#  51    0.06   -0.02    0.00    0.00    0.00    0.00    0.00       0.03   -0.22   -0.22
#  52    0.05   -0.03    0.00   -0.01   -0.01    0.00    0.00       0.00   -0.40   -0.28
#  53    0.04   -0.01    0.00   -0.01    0.00    0.00    0.00       0.02   -0.32   -0.28
#  54    0.10   -0.04    0.00   -0.04   -0.01    0.00    0.00       0.01   -1.19   -0.26
#  55    0.11   -0.01    0.00   -0.01    0.00    0.00    0.00       0.09   -1.08   -0.28
#  56    0.17   -0.01    0.00   -0.01    0.00    0.00    0.00       0.15   -0.84   -0.28
#  57    0.28   -0.04    0.00   -0.03   -0.01    0.00    0.00       0.20   -0.81   -0.28
#  58    0.72   -0.04    0.00   -0.04   -0.01    0.00    0.00       0.64   -1.04   -0.28

@<TRIPOS>MOLECULE
       AVX38672_0       100
   58    60     0     0     0



@<TRIPOS>ATOM
      1 C1         19.6490   -19.2146     8.4053 C.3        1           0.0749
      2 N1         18.6289   -18.7899     9.3671 N.am       1          -0.6274
      3 C2         17.3024   -19.4115     9.3505 C.3        1           0.1943
      4 C3         17.2992   -20.6128    10.2604 C.ar       1          -0.0519
      5 C4         18.4405   -20.9581    10.9496 C.ar       1          -0.1225
      6 C5         18.4460   -22.0607    11.7884 C.ar       1          -0.1018
      7 C6         17.3045   -22.8288    11.9439 C.ar       1          -0.0029
      8 O1         17.0582   -23.9414    12.6960 O.3        1          -0.3192
      9 C7         15.6238   -24.0413    12.7743 C.3        1           0.2047
     10 O2         15.1700   -23.3919    11.5720 O.3        1          -0.2770
     11 C8         16.1421   -22.4932    11.2542 C.ar       1           0.0774
     12 C9         16.1350   -21.3748    10.4099 C.ar       1          -0.1204
     13 C10        14.9111   -21.0067     9.6799 C.2        1           0.5221
     14 O3         14.1043   -20.2391    10.1864 O.co2      1          -0.6800
     15 O4         14.7007   -21.4684     8.5668 O.co2      1          -0.6710
     16 C11        18.9107   -17.8271    10.2672 C.2        1           0.7078
     17 O5         20.0116   -17.3112    10.2810 O.2        1          -0.5764
     18 N2         17.9722   -17.4363    11.1521 N.am       1          -0.7306
     19 C12        18.2786   -16.3900    12.1306 C.3        1           0.1881
     20 C13        18.6494   -15.1201    11.4086 C.2        1           0.5247
     21 O6         18.9402   -14.1264    12.0401 O.2        1          -0.5269
     22 N3         18.6581   -15.0890    10.0612 N.am       1          -0.7161
     23 C14        19.0187   -13.8546     9.3595 C.3        1           0.1695
     24 C15        20.4404   -13.4439     9.7478 C.3        1          -0.1634
     25 C16        18.9500   -14.0880     7.8490 C.3        1          -0.1560
     26 C17        18.0423   -12.7428     9.7487 C.3        1          -0.1652
     27 C18        17.0698   -16.1414    12.9954 C.ar       1          -0.0953
     28 C19        17.2297   -15.7134    14.3001 C.ar       1          -0.0936
     29 C20        16.1208   -15.4855    15.0935 C.ar       1          -0.1190
     30 C21        14.8521   -15.6850    14.5821 C.ar       1          -0.1156
     31 C22        14.6923   -16.1122    13.2772 C.ar       1          -0.1182
     32 C23        15.8010   -16.3361    12.4824 C.ar       1          -0.1025
     33 H1         20.5634   -18.6444     8.5698 H          1           0.0551
     34 H2         19.8542   -20.2768     8.5387 H          1           0.0643
     35 H3         19.2884   -19.0387     7.3918 H          1           0.0775
     36 H4         16.5598   -18.6923     9.6958 H          1           0.1137
     37 H5         17.0605   -19.7244     8.3348 H          1           0.1062
     38 H6         19.3364   -20.3661    10.8352 H          1           0.1249
     39 H7         19.3463   -22.3229    12.3240 H          1           0.1231
     40 H8         15.3127   -25.0859    12.7863 H          1           0.1234
     41 H9         15.2511   -23.5194    13.6557 H          1           0.0745
     42 H10        17.0939   -17.8480    11.1411 H          1           0.4043
     43 H11        19.1127   -16.7095    12.7553 H          1           0.1210
     44 H12        18.4256   -15.8839     9.5562 H          1           0.4015
     45 H13        20.7088   -12.5256     9.2257 H          1           0.0543
     46 H14        20.4895   -13.2776    10.8239 H          1           0.0621
     47 H15        21.1360   -14.2360     9.4704 H          1           0.0786
     48 H16        19.2183   -13.1696     7.3268 H          1           0.0628
     49 H17        19.6455   -14.8801     7.5716 H          1           0.0736
     50 H18        17.9371   -14.3807     7.5723 H          1           0.0627
     51 H19        18.3107   -11.8244     9.2264 H          1           0.0792
     52 H20        17.0295   -13.0353     9.4719 H          1           0.0627
     53 H21        18.0913   -12.5764    10.8248 H          1           0.0548
     54 H22        18.2208   -15.5575    14.6997 H          1           0.1191
     55 H23        16.2457   -15.1517    16.1130 H          1           0.1217
     56 H24        13.9859   -15.5075    15.2022 H          1           0.1209
     57 H25        13.7011   -16.2684    12.8777 H          1           0.1233
     58 H26        15.6760   -16.6662    11.4617 H          1           0.1239
@<TRIPOS>BOND
     1    1    2 1
     2    1   33 1
     3    1   34 1
     4    1   35 1
     5    2    3 1
     6    2   16 am
     7    3    4 1
     8    3   36 1
     9    3   37 1
    10    4   12 ar
    11    4    5 ar
    12    5    6 ar
    13    5   38 1
    14    6    7 ar
    15    6   39 1
    16    7   11 ar
    17    7    8 1
    18    8    9 1
    19    9   10 1
    20    9   40 1
    21    9   41 1
    22   10   11 1
    23   11   12 ar
    24   12   13 1
    25   13   14 1
    26   13   15 2
    27   16   17 2
    28   16   18 am
    29   18   19 1
    30   18   42 1
    31   19   20 1
    32   19   27 1
    33   19   43 1
    34   20   21 2
    35   20   22 am
    36   22   23 1
    37   22   44 1
    38   23   24 1
    39   23   25 1
    40   23   26 1
    41   24   45 1
    42   24   46 1
    43   24   47 1
    44   25   48 1
    45   25   49 1
    46   25   50 1
    47   26   51 1
    48   26   52 1
    49   26   53 1
    50   27   32 ar
    51   27   28 ar
    52   28   29 ar
    53   28   54 1
    54   29   30 ar
    55   29   55 1
    56   30   31 ar
    57   30   56 1
    58   31   32 ar
    59   31   57 1
    60   32   58 1
