AVX38779_0, 3
##########                 Name:           AVX38779_0
##########          Protonation:                   61
##########               SMILES:   C@H](C)NC(=O)c1ccccc1C[NH+](CC=C)Cc2ccc3c(c2C(=O)[O-])OC[C@H](O3)CCC(=O)[O-]
##########            Long Name:   ]methyl]-2-(3-oxido-3-oxo-propyl)-2,3-dihydro-1,4-benzodioxine-5-carboxylate
##########          FlexRecCode: 1
##########               Number:                  421
##########   Ligand Source File: /raid1/people/rgc/Examples/sampl4/screening/ligands/build_1//sampl4-hivint-00000
##########           GlobalRank: 56
##########                 Rank:                    1
##########               Setnum:                   56
##########             Matchnum:                27804
##########                Cloud:                    1
##########        Electrostatic:           -49.874763
##########        Van der Waals:           -13.173197
##########  Ligand Polar Desolv:            23.851988
########## Ligand Apolar Desolv:            -2.484489
##########      Internal Energy:             0.000000
##########      Receptor Energy: 0.0
########## Receptor Desolvation:             0.000000
########## Receptor Hydrophobic:             0.000000
##########         Total Energy: -41.68
##########        Ligand Charge:            -1.000000
##########            Arbitrary:    +999.9990
##########     heavy atom count:   37
##########           pose count:    1
##########        Ligand Energy:             0.000000
# num electro vdwattr vdwrepu polsolv apolsol rdesolv rhydroe totalscore fullpol fullapo
#   1   -0.23   -0.29    0.02    0.26   -0.03    0.00    0.00      -0.28    1.65   -0.20
#   2   -0.22   -0.71    0.28    0.14   -0.05    0.00    0.00      -0.56    0.70   -0.24
#   3    0.19   -0.26    0.02   -0.13   -0.03    0.00    0.00      -0.21   -0.98   -0.25
#   4   -0.22   -0.59    0.12    0.12   -0.04    0.00    0.00      -0.62    0.53   -0.19
#   5   -0.99   -0.22    0.00    0.46    0.16    0.00    0.00      -0.59    5.39    1.82
#   6    0.64   -0.09    0.00   -0.14   -0.02    0.00    0.00       0.39   -4.39   -0.63
#   7   -0.50   -0.05    0.00    0.10    0.01    0.00    0.00      -0.44    4.01    0.23
#   8   -0.09   -0.06    0.00    0.02   -0.01    0.00    0.00      -0.13    0.88   -0.30
#   9   -0.07   -0.03    0.00    0.02   -0.01    0.00    0.00      -0.08    0.99   -0.44
#  10   -0.09   -0.02    0.00    0.01   -0.01    0.00    0.00      -0.11    1.00   -0.47
#  11   -0.09   -0.04    0.00    0.01   -0.01    0.00    0.00      -0.13    0.48   -0.47
#  12   -0.14   -0.07    0.00    0.00   -0.01    0.00    0.00      -0.22    0.05   -0.39
#  13   -0.07   -0.09    0.00    0.01   -0.01    0.00    0.00      -0.16    0.17   -0.23
#  14    0.10   -0.13    0.00    0.01   -0.02    0.00    0.00      -0.04    0.15   -0.28
#  15   -0.79   -0.20    0.00   -0.01    0.01    0.00    0.00      -0.99   -0.14    0.07
#  16    1.43    0.00    0.00   -0.08    0.01    0.00    0.00       1.36   -2.51    0.29
#  17    0.02   -0.11    0.00    0.01   -0.02    0.00    0.00      -0.11    0.09   -0.37
#  18   -0.14   -0.19    0.00   -0.01   -0.03    0.00    0.00      -0.36   -0.10   -0.35
#  19   -0.11   -0.25    0.01    0.07   -0.03    0.00    0.00      -0.31    0.67   -0.34
#  20    0.13   -0.56    0.11    0.00   -0.06    0.00    0.00      -0.38    0.00   -0.28
#  21   -1.21   -0.88    0.10    0.09   -0.08    0.00    0.00      -1.97    0.35   -0.31
#  22   -1.96   -1.31    0.26   -0.02   -0.12    0.00    0.00      -3.16   -0.08   -0.40
#  23   -3.26   -1.71    0.77    0.35   -0.16    0.00    0.00      -4.01    1.04   -0.46
#  24    1.53   -1.16    0.32    0.04   -0.09    0.00    0.00       0.65    0.14   -0.30
#  25   -8.73   -1.04    0.13    2.65    0.24    0.00    0.00      -6.74    6.81    0.62
#  26    1.06   -0.80    0.08   -0.73   -0.05    0.00    0.00      -0.44   -1.74   -0.12
#  27   -1.42   -0.60    0.05    0.46   -0.06    0.00    0.00      -1.57    1.48   -0.18
#  28   -3.85   -0.52    0.03    1.11   -0.08    0.00    0.00      -3.31    3.63   -0.25
#  29   17.93   -1.14    0.41   -4.44   -0.04    0.00    0.00      12.72  -15.82   -0.16
#  30  -31.47   -2.92    9.46    7.63   -0.11    0.00    0.00     -17.42   28.86   -0.41
#  31  -30.85   -1.76    0.97   10.82   -0.15    0.00    0.00     -20.97   30.71   -0.43
#  32    0.24   -1.17    0.28   -0.22   -0.05    0.00    0.00      -0.93   -0.50   -0.12
#  33   -3.04   -1.32    0.80    2.83    0.09    0.00    0.00      -0.64    8.20    0.27
#  34    1.32   -0.89    0.11   -0.05   -0.09    0.00    0.00       0.40   -0.18   -0.30
#  35   -1.21   -0.80    0.08    0.94   -0.11    0.00    0.00      -1.10    3.38   -0.40
#  36    2.79   -1.00    0.32   -3.01   -0.04    0.00    0.00      -0.93  -11.43   -0.15
#  37   -2.83   -1.14    0.20    3.58   -0.07    0.00    0.00      -0.26   11.32   -0.22
#  38   -2.52   -1.36    1.11    5.32   -0.13    0.00    0.00       2.42   24.26   -0.59
#  39    0.10   -0.15    0.01   -0.04   -0.04    0.00    0.00      -0.12   -0.29   -0.26
#  40    0.09   -0.06    0.00   -0.01   -0.02    0.00    0.00       0.00   -0.20   -0.28
#  41    0.07   -0.04    0.00   -0.02   -0.01    0.00    0.00       0.00   -0.67   -0.28
#  42    0.15   -0.52    0.36   -0.10   -0.07    0.00    0.00      -0.19   -0.41   -0.28
#  43    0.12   -0.29    0.21   -0.08   -0.05    0.00    0.00      -0.09   -0.47   -0.28
#  44    0.10   -0.03    0.00   -0.01   -0.01    0.00    0.00       0.05   -0.44   -0.26
#  45    0.07   -0.11    0.02   -0.03   -0.03    0.00    0.00      -0.08   -0.24   -0.28
#  46    0.11   -0.33    0.10   -0.05   -0.07    0.00    0.00      -0.25   -0.21   -0.28
#  47    0.07   -0.20    0.05   -0.04   -0.06    0.00    0.00      -0.19   -0.21   -0.28
#  48    0.66    0.00    0.00   -0.11    0.02    0.00    0.00       0.56   -2.74    0.45
#  49    0.10    0.00    0.00   -0.01    0.00    0.00    0.00       0.09   -0.97   -0.22
#  50    0.10    0.00    0.00    0.00    0.00    0.00    0.00       0.09   -0.81   -0.28
#  51    0.12   -0.01    0.00    0.00    0.00    0.00    0.00       0.10   -0.27   -0.28
#  52    0.29   -0.02    0.00    0.02   -0.01    0.00    0.00       0.28    0.83   -0.28
#  53    0.61   -0.05    0.00    0.08   -0.01    0.00    0.00       0.63    2.06   -0.27
#  54    0.19   -0.05    0.00    0.01   -0.01    0.00    0.00       0.15    0.38   -0.15
#  55    0.11   -0.04    0.00    0.01   -0.01    0.00    0.00       0.07    0.27   -0.20
#  56    0.10   -0.01    0.00    0.04    0.00    0.00    0.00       0.12    2.20   -0.28
#  57    0.10   -0.04    0.00    0.01   -0.01    0.00    0.00       0.06    0.15   -0.22
#  58    0.09   -0.05    0.00   -0.02   -0.01    0.00    0.00       0.01   -0.39   -0.28
#  59    0.08   -0.06    0.00   -0.02   -0.02    0.00    0.00      -0.01   -0.36   -0.27
#  60    0.19   -0.27    0.06   -0.07   -0.03    0.00    0.00      -0.12   -0.35   -0.14
#  61    0.13   -0.26    0.13    0.25   -0.04    0.00    0.00       0.20    1.58   -0.27
#  62    1.71   -0.28    0.04    0.20   -0.07    0.00    0.00       1.60    0.80   -0.28
#  63    4.87   -0.42    0.13   -0.47   -0.09    0.00    0.00       4.01   -1.39   -0.28
#  64    1.86   -0.35    0.07   -0.64   -0.10    0.00    0.00       0.84   -1.79   -0.28
#  65    0.86   -0.33    0.06   -0.62   -0.08    0.00    0.00      -0.12   -2.07   -0.28
#  66    1.27   -0.12    0.01   -0.14   -0.03    0.00    0.00       0.99   -1.19   -0.28
#  67    1.19   -0.23    0.02   -0.52   -0.06    0.00    0.00       0.40   -2.23   -0.27
#  68    0.93   -0.11    0.00   -0.27   -0.03    0.00    0.00       0.52   -2.42   -0.28
#  69    0.61   -0.61    0.27   -0.59   -0.12    0.00    0.00      -0.44   -1.44   -0.28
#  70    1.84   -0.49    0.21   -1.10   -0.11    0.00    0.00       0.35   -2.81   -0.28

@<TRIPOS>MOLECULE
       AVX38779_0        61
   70    72     0     0     0



@<TRIPOS>ATOM
      1 C1         10.1508   -14.3269     9.9835 C.3        1          -0.1558
      2 C2         11.0445   -14.4920     8.7528 C.3        1          -0.1309
      3 C3         12.3124   -13.6537     8.9269 C.3        1           0.1401
      4 C4         13.2062   -13.8188     7.6961 C.3        1          -0.1614
      5 N1         13.0352   -14.1033    10.1192 N.am       1          -0.7087
      6 C5         13.7821   -13.2302    10.8237 C.2        1           0.5743
      7 O1         13.8559   -12.0697    10.4697 O.2        1          -0.5617
      8 C6         14.5116   -13.6839    12.0270 C.ar       1          -0.0767
      9 C7         14.2374   -13.1113    13.2703 C.ar       1          -0.0702
     10 C8         14.9212   -13.5395    14.3891 C.ar       1          -0.1007
     11 C9         15.8774   -14.5339    14.2809 C.ar       1          -0.0901
     12 C10        16.1538   -15.1054    13.0518 C.ar       1          -0.0996
     13 C11        15.4729   -14.6903    11.9258 C.ar       1          -0.0575
     14 C12        15.7712   -15.3181    10.5886 C.3        1           0.0442
     15 N2         17.2256   -15.4264    10.4121 N.4        1          -0.3539
     16 H1         17.6117   -16.0002    11.1468 H          1           0.4383
     17 C13        17.8269   -14.0874    10.4695 C.3        1           0.0230
     18 C14        19.2962   -14.2095    10.7812 C.2        1          -0.1876
     19 C15        20.1855   -13.7464     9.9380 C.2        1          -0.1347
     20 C16        17.5165   -16.0383     9.1087 C.3        1           0.0473
     21 C17        17.3514   -17.5330     9.2074 C.ar       1          -0.1299
     22 C18        16.1298   -18.1103     8.9409 C.ar       1          -0.1185
     23 C19        15.9701   -19.4836     9.0285 C.ar       1          -0.1212
     24 C20        17.0372   -20.2922     9.3846 C.ar       1           0.0629
     25 O2         16.8641   -21.6403     9.4622 O.3        1          -0.2959
     26 C21        17.8520   -22.3739    10.1929 C.3        1           0.0501
     27 C22        17.7042   -22.0951    11.6900 C.3        1          -0.0836
     28 C23        16.5643   -22.9438    12.2567 C.3        1          -0.1800
     29 C24        15.2793   -22.5944    11.5515 C.2        1           0.4904
     30 O3         14.8490   -21.4546    11.5977 O.co2      1          -0.6991
     31 O4         14.6698   -23.4516    10.9347 O.co2      1          -0.7065
     32 C25        19.2274   -21.9000     9.7083 C.3        1           0.0178
     33 O5         19.3301   -20.5049    10.0106 O.3        1          -0.2584
     34 C26        18.2766   -19.7251     9.6579 C.ar       1           0.0871
     35 C27        18.4406   -18.3356     9.5643 C.ar       1          -0.1235
     36 C28        19.7498   -17.7244     9.8447 C.2        1           0.5218
     37 O6         20.5576   -17.5667     8.9397 O.co2      1          -0.6917
     38 O7         20.0301   -17.3740    10.9828 O.co2      1          -0.6351
     39 H2          9.2475   -14.9242     9.8594 H          1           0.0600
     40 H3         10.6887   -14.6615    10.8706 H          1           0.0577
     41 H4          9.8795   -13.2773    10.0975 H          1           0.0564
     42 H5         11.3157   -15.5417     8.6389 H          1           0.0660
     43 H6         10.5068   -14.1575     7.8656 H          1           0.0780
     44 H7         12.0411   -12.6041     9.0407 H          1           0.0917
     45 H8         14.1094   -13.2214     7.8202 H          1           0.0658
     46 H9         13.4774   -14.8683     7.5822 H          1           0.0598
     47 H10        12.6684   -13.4841     6.8090 H          1           0.0557
     48 H11        12.9764   -15.0294    10.4015 H          1           0.4010
     49 H12        13.4919   -12.3346    13.3559 H          1           0.1224
     50 H13        14.7101   -13.0974    15.3516 H          1           0.1277
     51 H14        16.4105   -14.8652    15.1599 H          1           0.1274
     52 H15        16.9015   -15.8809    12.9741 H          1           0.1273
     53 H16        15.3252   -16.3118    10.5461 H          1           0.1132
     54 H17        15.3541   -14.6982     9.7950 H          1           0.1442
     55 H18        17.6996   -13.5903     9.5078 H          1           0.1242
     56 H19        17.3377   -13.5024    11.2484 H          1           0.1203
     57 H20        19.6162   -14.6787    11.6999 H          1           0.1307
     58 H21        21.2384   -13.8338    10.1615 H          1           0.1112
     59 H22        19.8655   -13.2770     9.0196 H          1           0.1029
     60 H23        16.8278   -15.6452     8.3609 H          1           0.1682
     61 H24        18.5407   -15.8043     8.8180 H          1           0.1022
     62 H25        15.2915   -17.4890     8.6624 H          1           0.1269
     63 H26        15.0077   -19.9265     8.8182 H          1           0.1354
     64 H27        17.7369   -23.4409    10.0022 H          1           0.0807
     65 H28        18.6338   -22.3478    12.2002 H          1           0.0864
     66 H29        17.4816   -21.0390    11.8427 H          1           0.0744
     67 H30        16.7871   -23.9998    12.1042 H          1           0.0635
     68 H31        16.4591   -22.7451    13.3233 H          1           0.0556
     69 H32        20.0125   -22.4500    10.2273 H          1           0.0756
     70 H33        19.3139   -22.0532     8.6326 H          1           0.1230
@<TRIPOS>BOND
     1    1    2 1
     2    1   39 1
     3    1   40 1
     4    1   41 1
     5    2    3 1
     6    2   42 1
     7    2   43 1
     8    3    4 1
     9    3    5 1
    10    3   44 1
    11    4   45 1
    12    4   46 1
    13    4   47 1
    14    5    6 am
    15    5   48 1
    16    6    7 2
    17    6    8 1
    18    8   13 ar
    19    8    9 ar
    20    9   10 ar
    21    9   49 1
    22   10   11 ar
    23   10   50 1
    24   11   12 ar
    25   11   51 1
    26   12   13 ar
    27   12   52 1
    28   13   14 1
    29   14   15 1
    30   14   53 1
    31   14   54 1
    32   15   16 1
    33   15   17 1
    34   15   20 1
    35   17   18 1
    36   17   55 1
    37   17   56 1
    38   18   19 2
    39   18   57 1
    40   19   58 1
    41   19   59 1
    42   20   21 1
    43   20   60 1
    44   20   61 1
    45   21   35 ar
    46   21   22 ar
    47   22   23 ar
    48   22   62 1
    49   23   24 ar
    50   23   63 1
    51   24   34 ar
    52   24   25 1
    53   25   26 1
    54   26   27 1
    55   26   32 1
    56   26   64 1
    57   27   28 1
    58   27   65 1
    59   27   66 1
    60   28   29 1
    61   28   67 1
    62   28   68 1
    63   29   30 1
    64   29   31 2
    65   32   33 1
    66   32   69 1
    67   32   70 1
    68   33   34 1
    69   34   35 ar
    70   35   36 1
    71   36   37 1
    72   36   38 2
