AVX38747_0, 3
##########                 Name:           AVX38747_0
##########          Protonation:                  100
##########               SMILES:   )C[C@H]([C@H]2Cc3ccc4c(c3C(=O)[O-])OC[C@@H](O4)CCC(=O)[O-])NC(=O)CCCCC[NH3+]
##########            Long Name:   ]methyl]-2-(3-oxido-3-oxo-propyl)-2,3-dihydro-1,4-benzodioxine-5-carboxylate
##########          FlexRecCode: 1
##########               Number:                  525
##########   Ligand Source File: /raid1/people/rgc/Examples/sampl4/screening/ligands/build_1//sampl4-hivint-00000
##########           GlobalRank: 88
##########                 Rank:                    1
##########               Setnum:                    5
##########             Matchnum:                28824
##########                Cloud:                    1
##########        Electrostatic:           -51.960514
##########        Van der Waals:           -11.555282
##########  Ligand Polar Desolv:            26.836067
########## Ligand Apolar Desolv:            -1.373544
##########      Internal Energy:             0.000000
##########      Receptor Energy: 0.0
########## Receptor Desolvation:             0.000000
########## Receptor Hydrophobic:             0.000000
##########         Total Energy: -38.05
##########        Ligand Charge:            -1.000000
##########            Arbitrary:    +999.9990
##########     heavy atom count:   37
##########           pose count:    1
##########        Ligand Energy:             0.000000
# num electro vdwattr vdwrepu polsolv apolsol rdesolv rhydroe totalscore fullpol fullapo
#   1   -0.63   -0.21    0.01   -1.32    0.08    0.00    0.00      -2.07  -14.75    0.86
#   2    0.44    0.00    0.00    0.46    0.02    0.00    0.00       0.92   11.72    0.58
#   3    0.45    0.00    0.00    0.24    0.01    0.00    0.00       0.70   10.53    0.58
#   4    0.47   -0.01    0.00    1.28    0.06    0.00    0.00       1.80   13.07    0.59
#   5   -0.01   -0.11    0.00    0.05   -0.03    0.00    0.00      -0.09    0.74   -0.49
#   6   -0.10   -0.03    0.00   -0.03   -0.01    0.00    0.00      -0.16   -1.36   -0.24
#   7   -0.08   -0.02    0.00    0.00    0.00    0.00    0.00      -0.10   -0.21   -0.22
#   8   -0.06    0.00    0.00    0.01    0.00    0.00    0.00      -0.06    0.98   -0.19
#   9   -0.07    0.00    0.00    0.01    0.00    0.00    0.00      -0.07    1.11   -0.24
#  10    0.36   -0.01    0.00   -0.07   -0.01    0.00    0.00       0.27   -8.10   -0.61
#  11   -0.39   -0.01    0.00    0.19    0.00    0.00    0.00      -0.21   16.65    0.37
#  12   -0.55   -0.01    0.00    0.09    0.01    0.00    0.00      -0.46    8.71    1.44
#  13    0.15   -0.02    0.00   -0.03    0.00    0.00    0.00       0.10   -2.48   -0.31
#  14   -0.07   -0.01    0.00    0.00    0.00    0.00    0.00      -0.09    0.23   -0.27
#  15   -0.14   -0.04    0.00    0.02   -0.01    0.00    0.00      -0.17    0.83   -0.43
#  16   -0.14   -0.04    0.00    0.01   -0.01    0.00    0.00      -0.18    0.49   -0.47
#  17   -0.22   -0.10    0.01    0.04   -0.02    0.00    0.00      -0.30    0.81   -0.47
#  18   -0.31   -0.38    0.14    0.19   -0.05    0.00    0.00      -0.41    1.89   -0.47
#  19   -0.23   -0.32    0.09    0.28   -0.04    0.00    0.00      -0.22    2.83   -0.40
#  20   -0.11   -0.09    0.00    0.10   -0.02    0.00    0.00      -0.11    2.29   -0.35
#  21   -0.09   -0.03    0.00    0.03    0.00    0.00    0.00      -0.10    1.28   -0.18
#  22   -0.05   -0.04    0.00    0.01    0.00    0.00    0.00      -0.07    0.63   -0.16
#  23   -0.21   -0.12    0.00    0.07   -0.01    0.00    0.00      -0.27    1.61   -0.32
#  24   -0.42   -0.21    0.01    0.12   -0.04    0.00    0.00      -0.53    1.32   -0.39
#  25   -0.97   -0.43    0.06    0.33   -0.07    0.00    0.00      -1.08    2.27   -0.46
#  26    0.48   -0.41    0.04   -0.07   -0.04    0.00    0.00       0.00   -0.48   -0.30
#  27   -4.06   -0.53    0.07    1.77    0.13    0.00    0.00      -2.63    8.58    0.62
#  28    0.93   -0.65    0.10   -0.55   -0.04    0.00    0.00      -0.20   -1.86   -0.12
#  29   -2.27   -0.91    0.26    0.49   -0.06    0.00    0.00      -2.49    1.49   -0.18
#  30   -6.48   -0.92    0.18    1.54   -0.09    0.00    0.00      -5.77    4.12   -0.25
#  31   23.74   -2.07    0.62   -7.54   -0.07    0.00    0.00      14.67  -16.88   -0.16
#  32  -36.12   -3.37    2.12   16.14   -0.22    0.00    0.00     -21.46   29.91   -0.41
#  33  -37.26   -2.44    1.84   12.88   -0.17    0.00    0.00     -25.15   31.91   -0.43
#  34    0.26   -0.98    0.25   -0.19   -0.04    0.00    0.00      -0.69   -0.60   -0.12
#  35   -2.31   -0.55    0.03    2.56    0.14    0.00    0.00      -0.13   11.56    0.61
#  36    0.44   -0.30    0.01   -0.03   -0.04    0.00    0.00       0.08   -0.27   -0.30
#  37   -0.37   -0.16    0.00    0.35   -0.02    0.00    0.00      -0.19    6.23   -0.40
#  38    0.64   -0.15    0.00   -1.11   -0.01    0.00    0.00      -0.61  -21.51   -0.11
#  39   -0.96   -0.15    0.00    1.76   -0.02    0.00    0.00       0.62   29.58   -0.42
#  40   -0.64   -0.12    0.00    1.82   -0.02    0.00    0.00       1.05   33.05   -0.39
#  41    0.10   -0.03    0.00    0.06   -0.01    0.00    0.00       0.13    2.24   -0.28
#  42    0.10   -0.04    0.00    0.15   -0.01    0.00    0.00       0.20    3.55   -0.28
#  43    0.05    0.00    0.00    0.01    0.00    0.00    0.00       0.05    0.94   -0.28
#  44    0.06   -0.01    0.00    0.00    0.00    0.00    0.00       0.05    0.02   -0.28
#  45    0.06   -0.01    0.00    0.00    0.00    0.00    0.00       0.05    0.04   -0.28
#  46    0.04    0.00    0.00    0.01    0.00    0.00    0.00       0.05    0.90   -0.28
#  47    0.03    0.00    0.00    0.00    0.00    0.00    0.00       0.03   -0.54   -0.28
#  48    0.05    0.00    0.00    0.00    0.00    0.00    0.00       0.05    0.56   -0.28
#  49    0.05    0.00    0.00    0.00    0.00    0.00    0.00       0.04   -0.84   -0.28
#  50    0.04    0.00    0.00    0.00    0.00    0.00    0.00       0.04   -0.35   -0.28
#  51    0.27    0.00    0.00   -0.02    0.00    0.00    0.00       0.26   -2.75    0.57
#  52    0.10    0.00    0.00   -0.01    0.00    0.00    0.00       0.09   -0.85   -0.27
#  53    0.06    0.00    0.00    0.00    0.00    0.00    0.00       0.06   -0.64   -0.26
#  54    0.06    0.00    0.00    0.00    0.00    0.00    0.00       0.06   -0.72   -0.28
#  55    0.12    0.00    0.00    0.00    0.00    0.00    0.00       0.11   -0.69   -0.28
#  56    0.19   -0.01    0.00   -0.01    0.00    0.00    0.00       0.16   -1.06   -0.28
#  57    0.42   -0.19    0.16   -0.20   -0.03    0.00    0.00       0.16   -1.74   -0.28
#  58    0.42   -0.12    0.05   -0.07   -0.02    0.00    0.00       0.26   -0.82   -0.27
#  59    0.17   -0.01    0.00    0.02    0.00    0.00    0.00       0.17    1.44   -0.23
#  60    0.07   -0.01    0.00   -0.01    0.00    0.00    0.00       0.06   -0.73   -0.21
#  61    0.05   -0.01    0.00   -0.03    0.00    0.00    0.00       0.01   -2.30   -0.27
#  62    0.26   -0.03    0.00   -0.10   -0.01    0.00    0.00       0.13   -3.18   -0.28
#  63    0.96   -0.13    0.03   -0.42   -0.03    0.00    0.00       0.41   -3.44   -0.28
#  64    1.45   -0.27    0.07   -0.58   -0.07    0.00    0.00       0.60   -2.37   -0.28
#  65    1.88   -0.14    0.01   -0.22   -0.05    0.00    0.00       1.48   -1.31   -0.28
#  66    2.44   -0.76    0.76   -0.91   -0.09    0.00    0.00       1.44   -2.68   -0.28
#  67    1.99   -0.50    0.26   -0.94   -0.09    0.00    0.00       0.72   -2.82   -0.28
#  68    2.02   -0.14    0.01   -0.36   -0.04    0.00    0.00       1.49   -2.25   -0.27
#  69    0.66   -0.28    0.11   -0.77   -0.06    0.00    0.00      -0.34   -3.89   -0.28
#  70    0.85   -0.80    0.58   -0.68   -0.11    0.00    0.00      -0.17   -1.76   -0.28

@<TRIPOS>MOLECULE
       AVX38747_0       100
   70    73     0     0     0



@<TRIPOS>ATOM
      1 N1         15.2081   -12.9594     9.0042 N.4        1          -0.6383
      2 H1         14.2402   -12.7424     8.8195 H          1           0.4335
      3 H2         15.3066   -13.2719     9.9585 H          1           0.4371
      4 H3         15.5148   -13.6888     8.3781 H          1           0.4339
      5 C1         16.0277   -11.7583     8.7952 C.3        1          -0.0090
      6 C2         15.5629   -10.6521     9.7445 C.3        1          -0.1539
      7 C3         15.7121   -11.1259    11.1916 C.3        1          -0.1149
      8 C4         15.2473   -10.0198    12.1409 C.3        1          -0.1076
      9 C5         15.3964   -10.4935    13.5881 C.3        1          -0.1349
     10 C6         14.5557   -11.7256    13.8025 C.2        1           0.5102
     11 O1         13.5374   -11.8838    13.1627 O.2        1          -0.5104
     12 N2         14.9349   -12.6515    14.7053 N.am       1          -0.7240
     13 C7         14.1174   -13.8493    14.9139 C.3        1           0.1551
     14 C8         14.3148   -14.4067    16.3397 C.3        1          -0.0795
     15 C9         14.2344   -15.9109    16.1914 C.ar       1          -0.1071
     16 C10        14.0269   -16.8966    17.1419 C.ar       1          -0.1107
     17 C11        13.9917   -18.2258    16.7685 C.ar       1          -0.1270
     18 C12        14.1642   -18.5746    15.4419 C.ar       1          -0.1169
     19 C13        14.3711   -17.5932    14.4926 C.ar       1          -0.0878
     20 C14        14.4069   -16.2597    14.8651 C.ar       1          -0.0663
     21 C15        14.6148   -15.0135    14.0313 C.3        1          -0.0658
     22 C16        16.0987   -14.8354    13.7039 C.3        1          -0.0433
     23 C17        16.5771   -16.0074    12.8863 C.ar       1          -0.0813
     24 C18        17.0810   -17.1251    13.5135 C.ar       1          -0.1142
     25 C19        17.5236   -18.2064    12.7692 C.ar       1          -0.1354
     26 C20        17.4644   -18.1762    11.3853 C.ar       1           0.0491
     27 O2         17.9072   -19.2455    10.6688 O.3        1          -0.3014
     28 C21        17.4756   -19.3296     9.3069 C.3        1           0.0520
     29 C22        15.9897   -19.6906     9.2541 C.3        1          -0.0819
     30 C23        15.8230   -21.1967     9.4656 C.3        1          -0.1794
     31 C24        14.3595   -21.5523     9.4136 C.2        1           0.4913
     32 O3         13.7117   -21.3229     8.4065 O.co2      1          -0.7008
     33 O4         13.8231   -22.0696    10.3787 O.co2      1          -0.7090
     34 C25        17.7000   -17.9537     8.6683 C.3        1           0.0253
     35 O5         16.8903   -17.0137     9.3818 O.3        1          -0.2963
     36 C26        16.9568   -17.0561    10.7369 C.ar       1           0.0596
     37 C27        16.5044   -15.9630    11.4897 C.ar       1          -0.1021
     38 C28        15.9608   -14.7736    10.8144 C.2        1           0.5502
     39 O6         14.7640   -14.7020    10.5709 O.co2      1          -0.6980
     40 O7         16.7056   -13.8567    10.4966 O.co2      1          -0.6747
     41 H4         17.0733   -11.9927     8.9947 H          1           0.1339
     42 H5         15.9215   -11.4208     7.7642 H          1           0.1306
     43 H6         16.1711    -9.7610     9.5895 H          1           0.0864
     44 H7         14.5172   -10.4178     9.5448 H          1           0.0935
     45 H8         15.1039   -12.0171    11.3467 H          1           0.0760
     46 H9         16.7577   -11.3604    11.3913 H          1           0.0684
     47 H10        15.8555    -9.1286    11.9858 H          1           0.0683
     48 H11        14.2017    -9.7852    11.9413 H          1           0.0879
     49 H12        16.4420   -10.7278    13.7876 H          1           0.0952
     50 H13        15.0652    -9.7054    14.2643 H          1           0.0838
     51 H14        15.7493   -12.5250    15.2169 H          1           0.3957
     52 H15        13.0660   -13.6373    14.7195 H          1           0.0984
     53 H16        15.2913   -14.1164    16.7274 H          1           0.0811
     54 H17        13.5236   -14.0488    16.9984 H          1           0.0765
     55 H18        13.8926   -16.6250    18.1785 H          1           0.1135
     56 H19        13.8301   -18.9920    17.5123 H          1           0.1185
     57 H20        14.1373   -19.6135    15.1483 H          1           0.1214
     58 H21        14.5058   -17.8663    13.4564 H          1           0.1220
     59 H22        14.0286   -15.0700    13.1140 H          1           0.1078
     60 H23        16.2376   -13.9153    13.1361 H          1           0.0816
     61 H24        16.6710   -14.7806    14.6300 H          1           0.0565
     62 H25        17.1316   -17.1589    14.5918 H          1           0.1162
     63 H26        17.9175   -19.0780    13.2706 H          1           0.1242
     64 H27        18.0587   -20.0847     8.7798 H          1           0.0756
     65 H28        15.4570   -19.1525    10.0382 H          1           0.0727
     66 H29        15.5826   -19.4128     8.2818 H          1           0.0818
     67 H30        16.3556   -21.7348     8.6814 H          1           0.0547
     68 H31        16.2301   -21.4744    10.4378 H          1           0.0647
     69 H32        18.7505   -17.6745     8.7501 H          1           0.1153
     70 H33        17.4017   -17.9789     7.6202 H          1           0.0724
@<TRIPOS>BOND
     1    1    2 1
     2    1    3 1
     3    1    4 1
     4    1    5 1
     5    5    6 1
     6    5   41 1
     7    5   42 1
     8    6    7 1
     9    6   43 1
    10    6   44 1
    11    7    8 1
    12    7   45 1
    13    7   46 1
    14    8    9 1
    15    8   47 1
    16    8   48 1
    17    9   10 1
    18    9   49 1
    19    9   50 1
    20   10   11 2
    21   10   12 am
    22   12   13 1
    23   12   51 1
    24   13   21 1
    25   13   14 1
    26   13   52 1
    27   14   15 1
    28   14   53 1
    29   14   54 1
    30   15   20 ar
    31   15   16 ar
    32   16   17 ar
    33   16   55 1
    34   17   18 ar
    35   17   56 1
    36   18   19 ar
    37   18   57 1
    38   19   20 ar
    39   19   58 1
    40   20   21 1
    41   21   22 1
    42   21   59 1
    43   22   23 1
    44   22   60 1
    45   22   61 1
    46   23   37 ar
    47   23   24 ar
    48   24   25 ar
    49   24   62 1
    50   25   26 ar
    51   25   63 1
    52   26   36 ar
    53   26   27 1
    54   27   28 1
    55   28   29 1
    56   28   34 1
    57   28   64 1
    58   29   30 1
    59   29   65 1
    60   29   66 1
    61   30   31 1
    62   30   67 1
    63   30   68 1
    64   31   32 1
    65   31   33 2
    66   34   35 1
    67   34   69 1
    68   34   70 1
    69   35   36 1
    70   36   37 ar
    71   37   38 1
    72   38   39 1
    73   38   40 2
