AVX38787_1, 3
##########                 Name:           AVX38787_0
##########          Protonation:                   77
##########               SMILES:   C[NH+](Cc1ccccc1C(=O)NCC2CCCCC2)Cc3ccc4c(c3C(=O)[O-])OC[C@@H](O4)CCC(=O)[O-]
##########            Long Name:   ]methyl]-2-(3-oxido-3-oxo-propyl)-2,3-dihydro-1,4-benzodioxine-5-carboxylate
##########          FlexRecCode: 1
##########               Number:                  133
##########   Ligand Source File: /raid1/people/rgc/Examples/sampl4/screening/ligands/build_1//sampl4-hivint-00000
##########           GlobalRank: 87
##########                 Rank:                    1
##########               Setnum:                  121
##########             Matchnum:                10384
##########                Cloud:                    1
##########        Electrostatic:           -35.201557
##########        Van der Waals:           -18.492088
##########  Ligand Polar Desolv:            18.815865
########## Ligand Apolar Desolv:            -3.179811
##########      Internal Energy:             0.000000
##########      Receptor Energy: 0.0
########## Receptor Desolvation:             0.000000
########## Receptor Hydrophobic:             0.000000
##########         Total Energy: -38.06
##########        Ligand Charge:            -1.000000
##########            Arbitrary:    +999.9990
##########     heavy atom count:   38
##########           pose count:    1
##########        Ligand Energy:             0.000000
# num electro vdwattr vdwrepu polsolv apolsol rdesolv rhydroe totalscore fullpol fullapo
#   1   -0.59   -0.42    0.06   -0.12   -0.09    0.00    0.00      -1.16   -0.56   -0.41
#   2   -5.72   -0.53    0.04   -0.33    0.04    0.00    0.00      -6.50   -1.33    0.16
#   3    9.20   -0.01    0.00    0.20    0.04    0.00    0.00       9.43    1.81    0.32
#   4    0.41   -0.81    0.11    0.05   -0.10    0.00    0.00      -0.34    0.17   -0.30
#   5   -1.35   -1.29    0.17   -0.17   -0.11    0.00    0.00      -2.75   -0.49   -0.30
#   6   -1.80   -2.60    1.49   -0.32   -0.17    0.00    0.00      -3.41   -0.76   -0.40
#   7   -2.14   -2.87    1.25   -0.37   -0.25    0.00    0.00      -4.38   -0.70   -0.47
#   8   -2.89   -3.28    2.63   -0.40   -0.24    0.00    0.00      -4.18   -0.78   -0.47
#   9   -1.78   -2.25    1.73   -0.21   -0.18    0.00    0.00      -2.69   -0.52   -0.44
#  10   -2.15   -1.11    0.16   -0.20   -0.13    0.00    0.00      -3.43   -0.61   -0.40
#  11    7.70   -0.71    0.06    0.15   -0.16    0.00    0.00       7.05    0.62   -0.63
#  12   -9.65   -0.69    0.22    0.29    0.05    0.00    0.00      -9.78    1.61    0.29
#  13   -3.46   -0.88    0.12   -0.34    0.54    0.00    0.00      -4.03   -1.40    2.20
#  14    0.34   -0.25    0.01   -0.02   -0.05    0.00    0.00       0.02   -0.17   -0.38
#  15   -0.16   -0.19    0.01    0.00   -0.02    0.00    0.00      -0.35   -0.01   -0.15
#  16   -0.05   -0.39    0.03   -0.02   -0.04    0.00    0.00      -0.47   -0.09   -0.22
#  17   -0.08   -0.55    0.16   -0.01   -0.04    0.00    0.00      -0.52   -0.03   -0.25
#  18   -0.09   -0.14    0.01    0.02   -0.02    0.00    0.00      -0.23    0.23   -0.25
#  19   -0.10   -0.07    0.00    0.01   -0.01    0.00    0.00      -0.16    0.30   -0.25
#  20   -0.12   -0.07    0.00    0.01   -0.01    0.00    0.00      -0.19    0.32   -0.22
#  21    1.07   -0.62    0.15   -0.16   -0.07    0.00    0.00       0.38   -0.62   -0.26
#  22   -1.55   -0.61    0.09    0.07   -0.08    0.00    0.00      -2.07    0.36   -0.39
#  23   -1.50   -0.84    0.44    0.04   -0.06    0.00    0.00      -1.92    0.23   -0.34
#  24   -0.69   -0.37    0.02    0.08   -0.06    0.00    0.00      -1.01    0.59   -0.46
#  25    0.43   -0.41    0.01    0.02   -0.05    0.00    0.00       0.01    0.13   -0.30
#  26   -1.10   -0.34    0.01    1.00    0.10    0.00    0.00      -0.33    6.32    0.62
#  27    0.11   -0.44    0.03   -0.37   -0.03    0.00    0.00      -0.69   -1.66   -0.12
#  28   -0.11   -0.62    0.21    0.28   -0.04    0.00    0.00      -0.28    1.39   -0.18
#  29   -0.19   -0.15    0.01    0.29   -0.02    0.00    0.00      -0.06    3.57   -0.24
#  30    0.55   -0.11    0.00   -0.64   -0.01    0.00    0.00      -0.20  -15.60   -0.16
#  31   -0.82   -0.11    0.00    1.44   -0.02    0.00    0.00       0.49   28.48   -0.41
#  32   -0.77   -0.05    0.00    0.78   -0.01    0.00    0.00      -0.05   30.39   -0.43
#  33    0.12   -1.58    0.56   -0.15   -0.04    0.00    0.00      -1.10   -0.42   -0.12
#  34   -5.17   -1.41    0.28    3.01    0.09    0.00    0.00      -3.19    8.72    0.27
#  35    1.72   -0.71    0.05   -0.19   -0.08    0.00    0.00       0.79   -0.77   -0.30
#  36   -2.60   -0.65    0.04    1.03   -0.10    0.00    0.00      -2.27    4.31   -0.41
#  37   17.84   -1.12    0.16   -4.92   -0.06    0.00    0.00      11.91  -14.20   -0.17
#  38  -25.63   -2.42    1.75    8.27   -0.14    0.00    0.00     -18.17   18.94   -0.33
#  39  -28.28   -1.41    0.74    9.91   -0.21    0.00    0.00     -19.26   27.45   -0.59
#  40    0.90   -0.31    0.14    0.16   -0.04    0.00    0.00       0.85    0.68   -0.18
#  41    0.99   -0.08    0.01    0.15   -0.02    0.00    0.00       1.05    1.88   -0.22
#  42    0.95   -0.07    0.00    0.09   -0.02    0.00    0.00       0.95    1.22   -0.28
#  43    1.04   -0.53    0.16    0.04   -0.07    0.00    0.00       0.64    0.12   -0.20
#  44    1.16   -0.21    0.03    0.22   -0.05    0.00    0.00       1.15    1.16   -0.27
#  45    2.12   -0.89    1.15    0.68   -0.10    0.00    0.00       2.96    1.87   -0.28
#  46    3.40   -0.76    0.52    0.79   -0.15    0.00    0.00       3.80    1.46   -0.28
#  47    5.00   -1.26    3.06    0.72   -0.15    0.00    0.00       7.36    1.33   -0.28
#  48    2.67   -0.56    0.68    0.42   -0.07    0.00    0.00       3.15    1.26   -0.22
#  49   -0.50   -0.03    0.00    0.53    0.09    0.00    0.00       0.09    2.20    0.39
#  50    0.30   -0.05    0.00   -0.01   -0.01    0.00    0.00       0.23   -0.14   -0.28
#  51    0.08   -0.08    0.00   -0.01   -0.02    0.00    0.00      -0.03   -0.16   -0.28
#  52    0.20   -0.06    0.00    0.01   -0.02    0.00    0.00       0.14    0.13   -0.28
#  53    0.05   -0.08    0.00    0.00   -0.02    0.00    0.00      -0.05   -0.04   -0.28
#  54   -0.05   -0.23    0.03    0.05   -0.05    0.00    0.00      -0.24    0.26   -0.24
#  55    0.05   -0.20    0.04    0.00   -0.05    0.00    0.00      -0.16    0.02   -0.28
#  56    0.03   -0.42    0.43    0.01   -0.05    0.00    0.00       0.01    0.07   -0.28
#  57    0.05   -0.03    0.00    0.00   -0.01    0.00    0.00       0.02   -0.14   -0.28
#  58    0.04   -0.03    0.00    0.00   -0.01    0.00    0.00      -0.01   -0.12   -0.28
#  59    0.05   -0.01    0.00    0.00    0.00    0.00    0.00       0.04   -0.18   -0.28
#  60    0.05   -0.02    0.00    0.00   -0.01    0.00    0.00       0.01   -0.13   -0.28
#  61    0.09   -0.01    0.00    0.00    0.00    0.00    0.00       0.07   -0.20   -0.28
#  62    0.07   -0.02    0.00    0.00    0.00    0.00    0.00       0.05   -0.20   -0.28
#  63    1.54   -0.61    1.35   -0.25   -0.06    0.00    0.00       1.96   -0.97   -0.23
#  64    2.73   -0.15    0.01   -0.14   -0.04    0.00    0.00       2.41   -0.90   -0.26
#  65    0.74   -0.62    1.66    0.08   -0.04    0.00    0.00       1.82    0.39   -0.18
#  66    0.45   -0.05    0.00   -0.07   -0.02    0.00    0.00       0.31   -1.34   -0.28
#  67    0.19   -0.07    0.00   -0.09   -0.01    0.00    0.00       0.02   -1.76   -0.28
#  68    0.08   -0.66    1.35   -0.27   -0.06    0.00    0.00       0.44   -1.29   -0.28
#  69    0.13   -0.18    0.03   -0.36   -0.05    0.00    0.00      -0.43   -2.02   -0.28
#  70    0.05   -0.03    0.00   -0.07   -0.01    0.00    0.00      -0.06   -2.33   -0.28
#  71    0.06   -0.03    0.00   -0.08   -0.01    0.00    0.00      -0.06   -2.27   -0.27
#  72    0.41   -0.84    0.60   -1.13   -0.11    0.00    0.00      -1.07   -2.86   -0.28
#  73    0.72   -0.93    0.63   -0.67   -0.11    0.00    0.00      -0.36   -1.65   -0.28

@<TRIPOS>MOLECULE
       AVX38787_0        77
   73    76     0     0     0



@<TRIPOS>ATOM
      1 C1         17.6123   -20.3114    13.8007 C.3        1          -0.0635
      2 N1         17.3011   -21.3239    12.7828 N.4        1          -0.3783
      3 H1         16.3069   -21.3331    12.6107 H          1           0.4150
      4 C2         17.7277   -22.6458    13.2607 C.3        1           0.0368
      5 C3         16.9996   -23.7174    12.4908 C.ar       1          -0.0839
      6 C4         17.5435   -24.2244    11.3285 C.ar       1          -0.0991
      7 C5         16.8764   -25.2080    10.6207 C.ar       1          -0.0876
      8 C6         15.6605   -25.6902    11.0724 C.ar       1          -0.1022
      9 C7         15.1059   -25.1923    12.2331 C.ar       1          -0.0816
     10 C8         15.7764   -24.2033    12.9551 C.ar       1          -0.1209
     11 C9         15.1907   -23.6692    14.2029 C.2        1           0.5516
     12 O1         14.9257   -22.4862    14.2922 O.2        1          -0.5413
     13 N2         14.9505   -24.4938    15.2416 N.am       1          -0.7107
     14 C10        14.3702   -23.9644    16.4781 C.3        1           0.1172
     15 C11        15.4921   -23.5222    17.4197 C.3        1          -0.0993
     16 C12        16.3851   -24.7206    17.7475 C.3        1          -0.1153
     17 C13        17.5070   -24.2782    18.6890 C.3        1          -0.1198
     18 C14        16.9009   -23.7255    19.9805 C.3        1          -0.1221
     19 C15        16.0080   -22.5271    19.6526 C.3        1          -0.1195
     20 C16        14.8860   -22.9694    18.7112 C.3        1          -0.1138
     21 C17        18.0108   -21.0008    11.5379 C.3        1           0.0713
     22 C18        17.5732   -19.6445    11.0477 C.ar       1          -0.1010
     23 C19        18.2506   -18.5149    11.4496 C.ar       1          -0.1660
     24 C20        17.8550   -17.2653    11.0025 C.ar       1          -0.1056
     25 C21        16.7733   -17.1359    10.1453 C.ar       1           0.0512
     26 O2         16.4082   -15.8976     9.7133 O.3        1          -0.2969
     27 C22        15.0960   -15.7723     9.1541 C.3        1           0.0495
     28 C23        14.9769   -14.4403     8.4108 C.3        1          -0.0830
     29 C24        15.2245   -13.2881     9.3865 C.3        1          -0.1801
     30 C25        14.2029   -13.3387    10.4933 C.2        1           0.4906
     31 O3         13.0153   -13.2529    10.2311 O.co2      1          -0.6991
     32 O4         14.5642   -13.4659    11.6508 O.co2      1          -0.7072
     33 C26        14.8785   -16.9332     8.1741 C.3        1           0.0169
     34 O5         15.0119   -18.1614     8.8977 O.3        1          -0.2553
     35 C27        16.0776   -18.2656     9.7323 C.ar       1           0.1022
     36 C28        16.4821   -19.5324    10.1794 C.ar       1          -0.1171
     37 C29        15.7584   -20.7369     9.7418 C.2        1           0.5229
     38 O6         16.1092   -21.3275     8.7296 O.co2      1          -0.6965
     39 O7         14.8059   -21.1477    10.3905 O.co2      1          -0.6418
     40 H2         18.6863   -20.3015    13.9866 H          1           0.1319
     41 H3         17.2958   -19.3305    13.4462 H          1           0.1091
     42 H4         17.0858   -20.5512    14.7246 H          1           0.1213
     43 H5         18.8016   -22.7571    13.1110 H          1           0.1586
     44 H6         17.4969   -22.7405    14.3218 H          1           0.1311
     45 H7         18.4920   -23.8520    10.9704 H          1           0.1421
     46 H8         17.3063   -25.6012     9.7113 H          1           0.1389
     47 H9         15.1445   -26.4578    10.5148 H          1           0.1385
     48 H10        14.1570   -25.5695    12.5846 H          1           0.1333
     49 H11        15.1620   -25.4379    15.1703 H          1           0.4022
     50 H12        13.7340   -23.1107    16.2446 H          1           0.0785
     51 H13        13.7751   -24.7396    16.9611 H          1           0.0771
     52 H14        16.0873   -22.7470    16.9368 H          1           0.0784
     53 H15        15.7900   -25.4957    18.2304 H          1           0.0666
     54 H16        16.8169   -25.1144    16.8274 H          1           0.0575
     55 H17        18.1431   -25.1320    18.9225 H          1           0.0623
     56 H18        18.1021   -23.5031    18.2061 H          1           0.0618
     57 H19        16.3058   -24.5006    20.4633 H          1           0.0625
     58 H20        17.7001   -23.4104    20.6512 H          1           0.0620
     59 H21        15.5761   -22.1333    20.5728 H          1           0.0658
     60 H22        16.6030   -21.7520    19.1698 H          1           0.0626
     61 H23        14.2499   -22.1157    18.4776 H          1           0.0691
     62 H24        14.2909   -23.7446    19.1940 H          1           0.0677
     63 H25        19.0847   -20.9909    11.7239 H          1           0.1565
     64 H26        17.7797   -21.7521    10.7825 H          1           0.1419
     65 H27        19.0946   -18.6040    12.1175 H          1           0.1092
     66 H28        18.3927   -16.3856    11.3241 H          1           0.1344
     67 H29        14.3519   -15.8174     9.9493 H          1           0.0819
     68 H30        15.7157   -14.4037     7.6103 H          1           0.0740
     69 H31        13.9770   -14.3490     7.9869 H          1           0.0867
     70 H32        16.2245   -13.3793     9.8105 H          1           0.0560
     71 H33        15.1395   -12.3390     8.8570 H          1           0.0629
     72 H34        13.8797   -16.8674     7.7424 H          1           0.1245
     73 H35        15.6257   -16.8903     7.3817 H          1           0.0762
@<TRIPOS>BOND
     1    1    2 1
     2    1   40 1
     3    1   41 1
     4    1   42 1
     5    2    3 1
     6    2    4 1
     7    2   21 1
     8    4    5 1
     9    4   43 1
    10    4   44 1
    11    5   10 ar
    12    5    6 ar
    13    6    7 ar
    14    6   45 1
    15    7    8 ar
    16    7   46 1
    17    8    9 ar
    18    8   47 1
    19    9   10 ar
    20    9   48 1
    21   10   11 1
    22   11   12 2
    23   11   13 am
    24   13   14 1
    25   13   49 1
    26   14   15 1
    27   14   50 1
    28   14   51 1
    29   15   20 1
    30   15   16 1
    31   15   52 1
    32   16   17 1
    33   16   53 1
    34   16   54 1
    35   17   18 1
    36   17   55 1
    37   17   56 1
    38   18   19 1
    39   18   57 1
    40   18   58 1
    41   19   20 1
    42   19   59 1
    43   19   60 1
    44   20   61 1
    45   20   62 1
    46   21   22 1
    47   21   63 1
    48   21   64 1
    49   22   36 ar
    50   22   23 ar
    51   23   24 ar
    52   23   65 1
    53   24   25 ar
    54   24   66 1
    55   25   35 ar
    56   25   26 1
    57   26   27 1
    58   27   28 1
    59   27   33 1
    60   27   67 1
    61   28   29 1
    62   28   68 1
    63   28   69 1
    64   29   30 1
    65   29   70 1
    66   29   71 1
    67   30   31 1
    68   30   32 2
    69   33   34 1
    70   33   72 1
    71   33   73 1
    72   34   35 1
    73   35   36 ar
    74   36   37 1
    75   37   38 1
    76   37   39 2
