AVX38780_0, 3
##########                 Name:           AVX38780_0
##########          Protonation:                   39
##########               SMILES:   c1ccc(cc1)CNC(=O)c2ccccc2CN(CC=C)Cc3ccc4c(c3C(=O)[O-])OC[C@H](O4)CCC(=O)[O-]
##########            Long Name:   ]methyl]-2-(3-oxido-3-oxo-propyl)-2,3-dihydro-1,4-benzodioxine-5-carboxylate
##########          FlexRecCode: 1
##########               Number:                   66
##########   Ligand Source File: /raid1/people/rgc/Examples/sampl4/screening/ligands/build_1//sampl4-hivint-00000
##########           GlobalRank: 109
##########                 Rank:                    1
##########               Setnum:                   12
##########             Matchnum:                26986
##########                Cloud:                    1
##########        Electrostatic:           -40.219563
##########        Van der Waals:           -23.825130
##########  Ligand Polar Desolv:            36.449318
########## Ligand Apolar Desolv:            -2.660964
##########      Internal Energy:             0.000000
##########      Receptor Energy: 0.0
########## Receptor Desolvation:             0.000000
########## Receptor Hydrophobic:             0.000000
##########         Total Energy: -30.26
##########        Ligand Charge:            -2.000000
##########            Arbitrary:    +999.9990
##########     heavy atom count:   42
##########           pose count:    1
##########        Ligand Energy:             0.000000
# num electro vdwattr vdwrepu polsolv apolsol rdesolv rhydroe totalscore fullpol fullapo
#   1    0.03   -0.79    0.20    0.00    0.01    0.00    0.00      -0.55   -0.01    0.03
#   2   -0.41   -0.64    0.03    0.89    0.24    0.00    0.00       0.12    3.39    0.93
#   3    0.15   -0.52    0.02   -0.23   -0.06    0.00    0.00      -0.64   -1.19   -0.31
#   4   -0.24   -0.69    0.07    0.37   -0.09    0.00    0.00      -0.58    1.68   -0.42
#   5   -0.06   -0.55    0.06    0.10   -0.09    0.00    0.00      -0.54    0.50   -0.45
#   6   -0.13   -0.32    0.02    0.23   -0.05    0.00    0.00      -0.25    1.71   -0.37
#   7    0.13   -0.13    0.00   -0.19   -0.04    0.00    0.00      -0.23   -2.36   -0.44
#   8   -0.62   -0.25    0.02    1.02    0.24    0.00    0.00       0.40    9.91    2.32
#   9    0.43   -0.16    0.00   -0.77   -0.04    0.00    0.00      -0.55  -11.35   -0.65
#  10   -0.33   -0.07    0.00    0.48    0.01    0.00    0.00       0.08   15.15    0.32
#  11   -0.13   -0.32    0.01    0.46   -0.05    0.00    0.00      -0.02    3.59   -0.41
#  12   -0.09   -0.53    0.05    0.15   -0.08    0.00    0.00      -0.50    0.82   -0.44
#  13   -0.15   -1.32    0.59    0.40   -0.11    0.00    0.00      -0.59    1.63   -0.47
#  14   -0.09   -1.99    1.57    0.57   -0.12    0.00    0.00      -0.05    2.28   -0.47
#  15   -0.08   -1.08    0.35    0.79   -0.07    0.00    0.00      -0.10    4.09   -0.38
#  16    0.01   -0.41    0.03    0.22   -0.06    0.00    0.00      -0.21    1.53   -0.40
#  17    0.08   -0.13    0.00   -0.37   -0.02    0.00    0.00      -0.44   -4.37   -0.25
#  18   -0.44   -0.38    0.02    2.08    0.20    0.00    0.00       1.48   16.16    1.58
#  19    0.06   -0.11    0.00   -0.13   -0.02    0.00    0.00      -0.19   -2.15   -0.37
#  20   -0.18   -0.11    0.00    0.19   -0.01    0.00    0.00      -0.11    4.50   -0.35
#  21   -0.18   -0.05    0.00    0.05   -0.01    0.00    0.00      -0.19    2.30   -0.34
#  22    0.11   -0.68    0.26   -0.83   -0.06    0.00    0.00      -1.19   -4.17   -0.30
#  23   -0.16   -1.43    0.96    0.29   -0.08    0.00    0.00      -0.43    1.15   -0.33
#  24   -0.78   -1.86    0.67    0.69   -0.13    0.00    0.00      -1.40    2.24   -0.42
#  25   -1.94   -2.35    1.08    0.74   -0.16    0.00    0.00      -2.64    2.11   -0.46
#  26    0.58   -1.58    0.70   -0.04   -0.10    0.00    0.00      -0.43   -0.12   -0.30
#  27   -8.99   -1.93    1.88    3.60    0.22    0.00    0.00      -5.21    9.96    0.62
#  28    1.35   -0.66    0.07   -0.79   -0.04    0.00    0.00      -0.06   -2.27   -0.12
#  29   -1.97   -0.39    0.03    0.39   -0.04    0.00    0.00      -1.98    1.69   -0.18
#  30   -3.85   -0.45    0.02    1.32   -0.07    0.00    0.00      -3.02    4.81   -0.24
#  31   14.81   -1.00    0.13   -6.17   -0.05    0.00    0.00       7.73  -18.86   -0.16
#  32  -28.60   -1.24    0.32   10.37   -0.13    0.00    0.00     -19.28   32.91   -0.41
#  33  -19.42   -1.41    0.25   14.10   -0.17    0.00    0.00      -6.66   34.98   -0.43
#  34    0.33   -0.78    0.09   -0.20   -0.05    0.00    0.00      -0.60   -0.51   -0.12
#  35   -3.19   -0.98    0.35    3.91    0.08    0.00    0.00       0.17   12.62    0.27
#  36    0.95   -0.88    0.09   -0.37   -0.09    0.00    0.00      -0.30   -1.28   -0.30
#  37   -0.68   -0.90    0.16    2.05   -0.11    0.00    0.00       0.52    7.65   -0.41
#  38    2.18   -1.02    0.38   -5.56   -0.04    0.00    0.00      -4.06  -22.47   -0.17
#  39   -2.54   -0.98    0.15    8.93   -0.09    0.00    0.00       5.47   30.51   -0.31
#  40   -2.07   -1.41    1.05    8.43   -0.13    0.00    0.00       5.87   38.22   -0.59
#  41   -0.05   -0.25    0.01    0.08   -0.05    0.00    0.00      -0.27    0.79   -0.45
#  42   -0.16   -0.33    0.01    0.24   -0.06    0.00    0.00      -0.30    1.95   -0.46
#  43    0.12   -0.54    0.43   -0.12   -0.07    0.00    0.00      -0.18   -0.47   -0.28
#  44    0.07   -0.27    0.09   -0.06   -0.05    0.00    0.00      -0.21   -0.32   -0.26
#  45    0.05   -0.12    0.00   -0.03   -0.03    0.00    0.00      -0.12   -0.32   -0.26
#  46    0.15   -0.19    0.04   -0.15   -0.03    0.00    0.00      -0.19   -1.01   -0.22
#  47    0.12   -0.10    0.01   -0.12   -0.03    0.00    0.00      -0.12   -1.17   -0.28
#  48    0.05   -0.04    0.00   -0.03   -0.01    0.00    0.00      -0.02   -0.78   -0.28
#  49    0.05   -0.03    0.00   -0.02   -0.01    0.00    0.00      -0.01   -1.05   -0.28
#  50    0.40   -0.01    0.00   -0.46    0.04    0.00    0.00      -0.02   -4.68    0.44
#  51    0.11   -0.08    0.01   -0.19   -0.02    0.00    0.00      -0.18   -2.22   -0.22
#  52    0.14   -0.48    0.40   -0.60   -0.07    0.00    0.00      -0.62   -2.34   -0.28
#  53    0.11   -0.63    0.70   -0.76   -0.08    0.00    0.00      -0.65   -2.83   -0.28
#  54    0.13   -0.24    0.10   -0.33   -0.03    0.00    0.00      -0.37   -2.17   -0.21
#  55    0.07   -0.03    0.00    0.00   -0.01    0.00    0.00       0.04   -0.10   -0.25
#  56    0.05   -0.02    0.00   -0.04    0.00    0.00    0.00      -0.01   -2.03   -0.18
#  57    0.19   -0.03    0.00   -0.06   -0.01    0.00    0.00       0.09   -1.89   -0.22
#  58    0.07   -0.02    0.00   -0.03    0.00    0.00    0.00       0.02   -1.30   -0.23
#  59    0.13   -0.03    0.00   -0.06   -0.01    0.00    0.00       0.03   -2.24   -0.23
#  60    0.07   -0.01    0.00   -0.02    0.00    0.00    0.00       0.05   -1.71   -0.27
#  61    0.08   -0.01    0.00   -0.02    0.00    0.00    0.00       0.05   -2.08   -0.28
#  62    0.08   -0.59    0.80   -0.21   -0.05    0.00    0.00       0.03   -0.82   -0.21
#  63    0.02   -0.09    0.01   -0.21   -0.02    0.00    0.00      -0.29   -2.31   -0.21
#  64    0.22   -0.45    0.19   -1.24   -0.08    0.00    0.00      -1.36   -4.52   -0.28
#  65    2.40   -0.91    0.90   -1.71   -0.11    0.00    0.00       0.58   -4.51   -0.28
#  66    2.41   -0.26    0.03   -0.78   -0.08    0.00    0.00       1.31   -2.64   -0.28
#  67    1.36   -0.10    0.01   -0.32   -0.03    0.00    0.00       0.92   -3.11   -0.28
#  68    2.30   -0.18    0.08   -0.23   -0.04    0.00    0.00       1.93   -1.68   -0.28
#  69    0.96   -0.20    0.01   -0.54   -0.05    0.00    0.00       0.18   -2.67   -0.27
#  70    1.02   -0.10    0.01   -0.30   -0.03    0.00    0.00       0.60   -3.20   -0.28
#  71    0.91   -0.28    0.04   -0.68   -0.08    0.00    0.00      -0.09   -2.29   -0.28
#  72    2.03   -0.39    0.14   -1.59   -0.10    0.00    0.00       0.10   -4.65   -0.28
#  73    0.11   -0.03    0.00   -0.04   -0.01    0.00    0.00       0.03   -1.52   -0.28
#  74    0.13   -0.05    0.00   -0.06   -0.01    0.00    0.00       0.00   -1.47   -0.28

@<TRIPOS>MOLECULE
       AVX38780_0        39
   74    77     0     0     0



@<TRIPOS>ATOM
      1 C1         28.4515   -13.4685     6.1552 C.3        1           0.0271
      2 O1         27.6035   -14.2600     6.9897 O.3        1          -0.3185
      3 C2         26.4985   -13.6539     7.4981 C.ar       1           0.1300
      4 C3         25.6342   -14.3616     8.3209 C.ar       1          -0.2110
      5 C4         24.5119   -13.7431     8.8369 C.ar       1          -0.0600
      6 C5         24.2494   -12.4199     8.5336 C.ar       1          -0.1407
      7 C6         23.0240   -11.7479     9.0975 C.3        1           0.1665
      8 N1         21.9003   -11.9278     8.1747 N.am       1          -0.7306
      9 C7         20.6933   -11.4077     8.4734 C.2        1           0.5617
     10 O2         20.5370   -10.7894     9.5083 O.2        1          -0.5255
     11 C8         19.5593   -11.5891     7.5422 C.ar       1          -0.1537
     12 C9         19.6413   -11.1058     6.2353 C.ar       1          -0.0952
     13 C10        18.5799   -11.2789     5.3714 C.ar       1          -0.1441
     14 C11        17.4355   -11.9294     5.7980 C.ar       1          -0.0967
     15 C12        17.3479   -12.4106     7.0920 C.ar       1          -0.0922
     16 C13        18.4046   -12.2492     7.9644 C.ar       1           0.0096
     17 C14        18.3095   -12.7793     9.3719 C.3        1           0.1060
     18 N2         17.7576   -14.1405     9.3464 N.3        1          -0.4927
     19 C15        17.2113   -14.5117    10.6585 C.3        1           0.0664
     20 C16        15.8414   -13.9050    10.8223 C.2        1          -0.1703
     21 C17        15.6081   -13.0702    11.8044 C.2        1          -0.1980
     22 C18        18.7683   -15.1102     8.9036 C.3        1           0.1216
     23 C19        18.1669   -16.4919     8.8901 C.ar       1          -0.0556
     24 C20        16.9181   -16.6945     8.3459 C.ar       1          -0.1373
     25 C21        16.3587   -17.9617     8.3287 C.ar       1          -0.1262
     26 C22        17.0488   -19.0400     8.8581 C.ar       1           0.0303
     27 O3         16.4864   -20.2793     8.8296 O.3        1          -0.3051
     28 C23        17.0438   -21.2583     9.7123 C.3        1           0.0511
     29 C24        16.6645   -20.9305    11.1577 C.3        1          -0.0810
     30 C25        16.8123   -22.1851    12.0210 C.3        1          -0.1792
     31 C26        15.9029   -23.2661    11.4959 C.2        1           0.4919
     32 O4         14.6988   -23.0806    11.4496 O.co2      1          -0.7016
     33 O5         16.3714   -24.3262    11.1173 O.co2      1          -0.7116
     34 C27        18.5676   -21.2085     9.5497 C.3        1           0.0195
     35 O6         18.9965   -19.8991     9.9368 O.3        1          -0.2593
     36 C28        18.3099   -18.8522     9.4121 C.ar       1           0.0773
     37 C29        18.8792   -17.5708     9.4252 C.ar       1          -0.1139
     38 C30        20.2165   -17.3610    10.0029 C.2        1           0.5273
     39 O7         21.2102   -17.4547     9.2953 O.co2      1          -0.6668
     40 O8         20.3346   -17.0928    11.1907 O.co2      1          -0.6795
     41 C31        25.1093   -11.7122     7.7142 C.ar       1          -0.0588
     42 C32        26.2358   -12.3247     7.2000 C.ar       1          -0.1529
     43 H1         29.2942   -14.0718     5.8173 H          1           0.0991
     44 H2         27.8866   -13.1176     5.2916 H          1           0.0559
     45 H3         28.8208   -12.6126     6.7201 H          1           0.0554
     46 H4         25.8385   -15.3954     8.5574 H          1           0.1282
     47 H5         23.8388   -14.2936     9.4773 H          1           0.1276
     48 H6         22.7771   -12.1923    10.0616 H          1           0.0767
     49 H7         23.2206   -10.6837     9.2275 H          1           0.0741
     50 H8         22.0249   -12.4210     7.3490 H          1           0.3982
     51 H9         20.5337   -10.5973     5.9012 H          1           0.1145
     52 H10        18.6420   -10.9054     4.3599 H          1           0.1182
     53 H11        16.6070   -12.0615     5.1180 H          1           0.1214
     54 H12        16.4517   -12.9171     7.4190 H          1           0.1492
     55 H13        19.3026   -12.7984     9.8210 H          1           0.0985
     56 H14        17.6572   -12.1338     9.9600 H          1           0.0642
     57 H15        17.1386   -15.5970    10.7281 H          1           0.0711
     58 H16        17.8694   -14.1405    11.4442 H          1           0.0836
     59 H17        15.0524   -14.1586    10.1298 H          1           0.1068
     60 H18        16.3972   -12.8167    12.4967 H          1           0.0904
     61 H19        14.6264   -12.6354    11.9217 H          1           0.0872
     62 H20        19.1053   -14.8509     7.9000 H          1           0.1076
     63 H21        19.6161   -15.0896     9.5883 H          1           0.0180
     64 H22        16.3717   -15.8607     7.9304 H          1           0.1138
     65 H23        15.3784   -18.1098     7.9003 H          1           0.1205
     66 H24        16.6730   -22.2487     9.4480 H          1           0.0741
     67 H25        17.3223   -20.1487    11.5375 H          1           0.0807
     68 H26        15.6313   -20.5849    11.1929 H          1           0.0708
     69 H27        17.8455   -22.5305    11.9857 H          1           0.0643
     70 H28        16.5421   -21.9516    13.0508 H          1           0.0547
     71 H29        19.0331   -21.9557    10.1925 H          1           0.0673
     72 H30        18.8351   -21.3932     8.5093 H          1           0.1131
     73 H31        24.9022   -10.6787     7.4792 H          1           0.1344
     74 H32        26.9092   -11.7704     6.5632 H          1           0.1322
@<TRIPOS>BOND
     1    1    2 1
     2    1   43 1
     3    1   44 1
     4    1   45 1
     5    2    3 1
     6    3   42 ar
     7    3    4 ar
     8    4    5 ar
     9    4   46 1
    10    5    6 ar
    11    5   47 1
    12    6    7 1
    13    6   41 ar
    14    7    8 1
    15    7   48 1
    16    7   49 1
    17    8    9 am
    18    8   50 1
    19    9   10 2
    20    9   11 1
    21   11   16 ar
    22   11   12 ar
    23   12   13 ar
    24   12   51 1
    25   13   14 ar
    26   13   52 1
    27   14   15 ar
    28   14   53 1
    29   15   16 ar
    30   15   54 1
    31   16   17 1
    32   17   18 1
    33   17   55 1
    34   17   56 1
    35   18   19 1
    36   18   22 1
    37   19   20 1
    38   19   57 1
    39   19   58 1
    40   20   21 2
    41   20   59 1
    42   21   60 1
    43   21   61 1
    44   22   23 1
    45   22   62 1
    46   22   63 1
    47   23   37 ar
    48   23   24 ar
    49   24   25 ar
    50   24   64 1
    51   25   26 ar
    52   25   65 1
    53   26   36 ar
    54   26   27 1
    55   27   28 1
    56   28   29 1
    57   28   34 1
    58   28   66 1
    59   29   30 1
    60   29   67 1
    61   29   68 1
    62   30   31 1
    63   30   69 1
    64   30   70 1
    65   31   32 1
    66   31   33 2
    67   34   35 1
    68   34   71 1
    69   34   72 1
    70   35   36 1
    71   36   37 ar
    72   37   38 1
    73   38   39 1
    74   38   40 2
    75   41   42 ar
    76   41   73 1
    77   42   74 1
