AVX38748_0, 3
##########                 Name:           AVX38748_0
##########          Protonation:                  100
##########               SMILES:   C[C@@H]([C@@H]2Cc3ccc4c(c3C(=O)[O-])OC[C@@H](O4)CCC(=O)[O-])NC(=O)CCCC[NH3+]
##########            Long Name:   ]methyl]-2-(3-oxido-3-oxo-propyl)-2,3-dihydro-1,4-benzodioxine-5-carboxylate
##########          FlexRecCode: 1
##########               Number:                  391
##########   Ligand Source File: /raid1/people/rgc/Examples/sampl4/screening/ligands/build_1//sampl4-hivint-00000
##########           GlobalRank: 108
##########                 Rank:                    1
##########               Setnum:                    1
##########             Matchnum:                19023
##########                Cloud:                    1
##########        Electrostatic:           -40.125793
##########        Van der Waals:           -14.560752
##########  Ligand Polar Desolv:            26.031843
########## Ligand Apolar Desolv:            -1.863757
##########      Internal Energy:             0.000000
##########      Receptor Energy: 0.0
########## Receptor Desolvation:             0.000000
########## Receptor Hydrophobic:             0.000000
##########         Total Energy: -30.52
##########        Ligand Charge:            -1.000000
##########            Arbitrary:    +999.9990
##########     heavy atom count:   36
##########           pose count:    1
##########        Ligand Energy:             0.000000
# num electro vdwattr vdwrepu polsolv apolsol rdesolv rhydroe totalscore fullpol fullapo
#   1   -0.94   -0.11    0.00   -0.69    0.04    0.00    0.00      -1.70  -16.45    0.86
#   2    0.77    0.00    0.00    0.42    0.02    0.00    0.00       1.20   12.77    0.58
#   3    0.64    0.00    0.00    0.23    0.01    0.00    0.00       0.88   13.37    0.60
#   4    0.61    0.00    0.00    0.31    0.01    0.00    0.00       0.94   13.57    0.58
#   5   -0.01   -0.07    0.00    0.01   -0.02    0.00    0.00      -0.09    0.33   -0.49
#   6   -0.19   -0.21    0.01   -0.26   -0.03    0.00    0.00      -0.68   -2.23   -0.24
#   7   -0.11   -0.31    0.04   -0.09   -0.03    0.00    0.00      -0.51   -0.69   -0.19
#   8   -0.12   -0.11    0.00   -0.04   -0.02    0.00    0.00      -0.29   -0.56   -0.25
#   9    0.42   -0.22    0.01   -0.24   -0.05    0.00    0.00      -0.09   -2.59   -0.54
#  10   -0.46   -0.48    0.03    1.24    0.06    0.00    0.00       0.40    7.37    0.37
#  11   -0.53   -0.12    0.00    0.24    0.05    0.00    0.00      -0.36    5.31    1.10
#  12    0.11   -0.11    0.00   -0.18   -0.02    0.00    0.00      -0.20   -2.57   -0.28
#  13   -0.06   -0.07    0.00    0.03   -0.01    0.00    0.00      -0.11    0.78   -0.27
#  14   -0.06   -0.14    0.00    0.05   -0.02    0.00    0.00      -0.17    1.16   -0.43
#  15   -0.05   -0.15    0.00    0.04   -0.03    0.00    0.00      -0.18    0.76   -0.47
#  16   -0.05   -0.30    0.02    0.08   -0.05    0.00    0.00      -0.29    0.75   -0.47
#  17   -0.04   -0.65    0.10    0.25   -0.08    0.00    0.00      -0.42    1.47   -0.47
#  18   -0.04   -0.57    0.06    0.41   -0.08    0.00    0.00      -0.21    2.47   -0.45
#  19   -0.04   -0.24    0.01    0.17   -0.03    0.00    0.00      -0.13    2.03   -0.39
#  20   -0.03   -0.15    0.00    0.05   -0.01    0.00    0.00      -0.13    0.64   -0.15
#  21   -0.04   -0.17    0.01    0.07   -0.02    0.00    0.00      -0.14    0.78   -0.16
#  22   -0.08   -0.35    0.03    0.09   -0.04    0.00    0.00      -0.35    0.69   -0.33
#  23   -0.29   -0.59    0.06    0.20   -0.08    0.00    0.00      -0.69    1.02   -0.39
#  24   -0.46   -0.99    0.21    0.26   -0.12    0.00    0.00      -1.12    0.96   -0.46
#  25    0.21   -0.79    0.10    0.05   -0.08    0.00    0.00      -0.50    0.19   -0.30
#  26   -3.84   -1.08    0.16    2.44    0.21    0.00    0.00      -2.10    7.09    0.62
#  27    1.07   -0.81    0.25   -0.59   -0.04    0.00    0.00      -0.13   -1.93   -0.12
#  28   -1.61   -0.45    0.03    0.36   -0.05    0.00    0.00      -1.71    1.44   -0.18
#  29   -5.16   -0.47    0.04    0.93   -0.07    0.00    0.00      -4.73    3.55   -0.25
#  30   19.05   -1.62    0.52   -6.37   -0.07    0.00    0.00      11.52  -15.67   -0.16
#  31  -25.21   -2.29    1.18   13.09   -0.19    0.00    0.00     -13.42   28.71   -0.41
#  32  -34.34   -2.15    0.93   13.38   -0.20    0.00    0.00     -22.37   29.39   -0.43
#  33    0.37   -0.54    0.05   -0.10   -0.03    0.00    0.00      -0.26   -0.36   -0.12
#  34   -2.94   -0.29    0.01    1.68    0.04    0.00    0.00      -1.50   10.97    0.27
#  35    0.60   -0.39    0.02   -0.11   -0.05    0.00    0.00       0.07   -0.75   -0.30
#  36   -0.42   -0.27    0.01    0.75   -0.04    0.00    0.00       0.04    7.08   -0.41
#  37    1.12   -0.14    0.00   -1.03   -0.01    0.00    0.00      -0.05  -18.95   -0.16
#  38   -1.34   -0.13    0.00    1.70   -0.02    0.00    0.00       0.22   26.55   -0.29
#  39   -0.81   -0.07    0.00    1.10   -0.02    0.00    0.00       0.20   33.96   -0.59
#  40    0.17   -0.02    0.00    0.04   -0.01    0.00    0.00       0.18    1.85   -0.28
#  41    0.13   -0.01    0.00    0.04    0.00    0.00    0.00       0.15    2.67   -0.28
#  42    0.14   -0.11    0.01    0.30   -0.04    0.00    0.00       0.30    2.40   -0.28
#  43    0.10   -0.05    0.00    0.07   -0.01    0.00    0.00       0.11    1.73   -0.28
#  44    0.10   -0.07    0.00    0.01   -0.02    0.00    0.00       0.02    0.09   -0.28
#  45    0.08   -0.34    0.28    0.04   -0.05    0.00    0.00       0.02    0.25   -0.28
#  46    0.07   -0.02    0.00    0.02   -0.01    0.00    0.00       0.07    1.11   -0.28
#  47    0.08   -0.01    0.00    0.01    0.00    0.00    0.00       0.08    0.74   -0.25
#  48    0.29    0.00    0.00   -0.03    0.01    0.00    0.00       0.26   -1.84    0.44
#  49    0.09   -0.06    0.00   -0.04   -0.02    0.00    0.00      -0.03   -0.56   -0.26
#  50    0.06   -0.03    0.00   -0.02   -0.01    0.00    0.00       0.01   -0.89   -0.28
#  51    0.04   -0.01    0.00   -0.02    0.00    0.00    0.00       0.01   -1.07   -0.28
#  52    0.05   -0.02    0.00   -0.01    0.00    0.00    0.00       0.02   -0.87   -0.28
#  53    0.04   -0.04    0.00   -0.03   -0.01    0.00    0.00      -0.04   -0.81   -0.28
#  54    0.02   -0.32    0.22   -0.26   -0.05    0.00    0.00      -0.39   -1.48   -0.28
#  55    0.07   -0.21    0.04   -0.25   -0.05    0.00    0.00      -0.40   -1.47   -0.27
#  56    0.08   -0.06    0.00    0.02   -0.01    0.00    0.00       0.04    0.50   -0.22
#  57    0.08   -0.09    0.01   -0.08   -0.02    0.00    0.00      -0.10   -0.84   -0.20
#  58    0.03   -0.02    0.00   -0.04    0.00    0.00    0.00      -0.04   -1.91   -0.20
#  59    0.16   -0.10    0.01   -0.20   -0.02    0.00    0.00      -0.15   -1.81   -0.18
#  60    0.46   -0.28    0.07   -0.59   -0.07    0.00    0.00      -0.41   -2.37   -0.28
#  61    2.20   -0.80    2.01   -0.60   -0.08    0.00    0.00       2.72   -2.07   -0.28
#  62    1.23   -0.16    0.01   -0.24   -0.05    0.00    0.00       0.79   -1.33   -0.28
#  63    1.20   -0.12    0.02   -0.26   -0.03    0.00    0.00       0.80   -2.17   -0.28
#  64    1.37   -0.11    0.01   -0.25   -0.03    0.00    0.00       0.99   -2.43   -0.28
#  65    2.08   -0.21    0.12   -0.36   -0.04    0.00    0.00       1.59   -2.45   -0.27
#  66    1.84   -0.26    0.04   -0.85   -0.07    0.00    0.00       0.70   -3.52   -0.28
#  67    1.90   -0.17    0.01   -0.33   -0.05    0.00    0.00       1.36   -1.72   -0.28

@<TRIPOS>MOLECULE
       AVX38748_0       100
   67    70     0     0     0



@<TRIPOS>ATOM
      1 N1         14.4578   -14.8677    11.3429 N.4        1          -0.6377
      2 H1         13.9783   -15.6746    10.9723 H          1           0.4359
      3 H2         14.2696   -14.7891    12.3311 H          1           0.4364
      4 H3         15.4509   -14.9700    11.1968 H          1           0.4323
      5 C1         13.9838   -13.6585    10.6566 C.3        1          -0.0108
      6 C2         14.2691   -13.7775     9.1581 C.3        1          -0.1519
      7 C3         15.7749   -13.9326     8.9363 C.3        1          -0.1035
      8 C4         16.5019   -12.7092     9.4981 C.3        1          -0.1451
      9 C5         17.9851   -12.8622     9.2796 C.2        1           0.5113
     10 O1         18.4242   -12.9726     8.1545 O.2        1          -0.5410
     11 N2         18.8237   -12.8760    10.3347 N.am       1          -0.7052
     12 C6         20.2656   -13.0245    10.1223 C.3        1           0.1466
     13 C7         20.9537   -11.6451    10.0446 C.3        1          -0.0862
     14 C8         21.3829   -11.3361    11.4630 C.ar       1          -0.1072
     15 C9         21.7518   -10.1361    12.0477 C.ar       1          -0.1147
     16 C10        22.1107   -10.0939    13.3807 C.ar       1          -0.1304
     17 C11        22.1025   -11.2528    14.1344 C.ar       1          -0.1245
     18 C12        21.7350   -12.4504    13.5530 C.ar       1          -0.0891
     19 C13        21.3747   -12.4948    12.2165 C.ar       1          -0.0648
     20 C14        20.9393   -13.6616    11.3562 C.3        1          -0.0387
     21 C15        19.9389   -14.5363    12.1147 C.3        1          -0.0528
     22 C16        19.4788   -15.6613    11.2238 C.ar       1          -0.0521
     23 C17        20.3228   -16.1659    10.2597 C.ar       1          -0.1399
     24 C18        19.9071   -17.1993     9.4361 C.ar       1          -0.1232
     25 C19        18.6378   -17.7374     9.5728 C.ar       1           0.0303
     26 O2         18.2437   -18.7499     8.7526 O.3        1          -0.3053
     27 C20        17.1108   -19.5154     9.1756 C.3        1           0.0513
     28 C21        17.4947   -20.3974    10.3654 C.3        1          -0.0821
     29 C22        16.2781   -21.2114    10.8104 C.3        1          -0.1777
     30 C23        15.8111   -22.0804     9.6709 C.2        1           0.4908
     31 O3         16.5624   -22.9119     9.1908 O.co2      1          -0.6984
     32 O4         14.6821   -21.9517     9.2291 O.co2      1          -0.7116
     33 C24        16.0174   -18.5248     9.5930 C.3        1           0.0192
     34 O5         16.5288   -17.7600    10.6892 O.3        1          -0.2601
     35 C25        17.7743   -17.2407    10.5423 C.ar       1           0.0875
     36 C26        18.1958   -16.1976    11.3794 C.ar       1          -0.1349
     37 C27        17.2919   -15.6664    12.4123 C.2        1           0.5233
     38 O6         17.2950   -16.1507    13.5357 O.co2      1          -0.6832
     39 O7         16.5373   -14.7405    12.1474 O.co2      1          -0.6628
     40 H4         12.9109   -13.5479    10.8145 H          1           0.1378
     41 H5         14.5016   -12.7869    11.0569 H          1           0.1337
     42 H6         13.7512   -14.6491     8.7578 H          1           0.0856
     43 H7         13.9173   -12.8803     8.6489 H          1           0.0902
     44 H8         16.1266   -14.8300     9.4455 H          1           0.0868
     45 H9         15.9781   -14.0175     7.8688 H          1           0.0803
     46 H10        16.1502   -11.8119     8.9890 H          1           0.0921
     47 H11        16.2988   -12.6244    10.5657 H          1           0.0978
     48 H12        18.4727   -12.7877    11.2345 H          1           0.4004
     49 H13        20.4652   -13.6114     9.2256 H          1           0.1034
     50 H14        21.8227   -11.6923     9.3882 H          1           0.0862
     51 H15        20.2510   -10.8914     9.6895 H          1           0.0705
     52 H16        21.7588    -9.2305    11.4595 H          1           0.1107
     53 H17        22.3982    -9.1565    13.8336 H          1           0.1156
     54 H18        22.3833   -11.2216    15.1767 H          1           0.1188
     55 H19        21.7287   -13.3553    14.1425 H          1           0.1309
     56 H20        21.8043   -14.2512    11.0527 H          1           0.1177
     57 H21        20.4174   -14.9488    13.0030 H          1           0.1185
     58 H22        19.0807   -13.9332    12.4111 H          1           0.0373
     59 H23        21.3143   -15.7535    10.1448 H          1           0.1074
     60 H24        20.5765   -17.5876     8.6827 H          1           0.1152
     61 H25        16.7563   -20.1371     8.3534 H          1           0.0757
     62 H26        18.2971   -21.0741    10.0720 H          1           0.0714
     63 H27        17.8324   -19.7689    11.1895 H          1           0.0833
     64 H28        16.5515   -21.8398    11.6580 H          1           0.0552
     65 H29        15.4756   -20.5347    11.1036 H          1           0.0612
     66 H30        15.7790   -17.8639     8.7598 H          1           0.1167
     67 H31        15.1253   -19.0681     9.9048 H          1           0.0699
@<TRIPOS>BOND
     1    1    2 1
     2    1    3 1
     3    1    4 1
     4    1    5 1
     5    5    6 1
     6    5   40 1
     7    5   41 1
     8    6    7 1
     9    6   42 1
    10    6   43 1
    11    7    8 1
    12    7   44 1
    13    7   45 1
    14    8    9 1
    15    8   46 1
    16    8   47 1
    17    9   10 2
    18    9   11 am
    19   11   12 1
    20   11   48 1
    21   12   20 1
    22   12   13 1
    23   12   49 1
    24   13   14 1
    25   13   50 1
    26   13   51 1
    27   14   19 ar
    28   14   15 ar
    29   15   16 ar
    30   15   52 1
    31   16   17 ar
    32   16   53 1
    33   17   18 ar
    34   17   54 1
    35   18   19 ar
    36   18   55 1
    37   19   20 1
    38   20   21 1
    39   20   56 1
    40   21   22 1
    41   21   57 1
    42   21   58 1
    43   22   36 ar
    44   22   23 ar
    45   23   24 ar
    46   23   59 1
    47   24   25 ar
    48   24   60 1
    49   25   35 ar
    50   25   26 1
    51   26   27 1
    52   27   28 1
    53   27   33 1
    54   27   61 1
    55   28   29 1
    56   28   62 1
    57   28   63 1
    58   29   30 1
    59   29   64 1
    60   29   65 1
    61   30   31 1
    62   30   32 2
    63   33   34 1
    64   33   66 1
    65   33   67 1
    66   34   35 1
    67   35   36 ar
    68   36   37 1
    69   37   38 1
    70   37   39 2
