AVX38783_1, 3
##########                 Name:           AVX38783_0
##########          Protonation:                   61
##########               SMILES:   =CC[NH+](Cc1ccccc1C(=O)NCc2ccco2)Cc3ccc4c(c3C(=O)[O-])OC[C@H](O4)CCC(=O)[O-]
##########            Long Name:   ]methyl]-2-(3-oxido-3-oxo-propyl)-2,3-dihydro-1,4-benzodioxine-5-carboxylate
##########          FlexRecCode: 1
##########               Number:                  745
##########   Ligand Source File: /raid1/people/rgc/Examples/sampl4/screening/ligands/build_1//sampl4-hivint-00000
##########           GlobalRank: 86
##########                 Rank:                    1
##########               Setnum:                  240
##########             Matchnum:                28968
##########                Cloud:                    1
##########        Electrostatic:           -44.464001
##########        Van der Waals:           -17.128952
##########  Ligand Polar Desolv:            25.780947
########## Ligand Apolar Desolv:            -2.369143
##########      Internal Energy:             0.000000
##########      Receptor Energy: 0.0
########## Receptor Desolvation:             0.000000
########## Receptor Hydrophobic:             0.000000
##########         Total Energy: -38.18
##########        Ligand Charge:            -1.000000
##########            Arbitrary:    +999.9990
##########     heavy atom count:   39
##########           pose count:    1
##########        Ligand Energy:             0.000000
# num electro vdwattr vdwrepu polsolv apolsol rdesolv rhydroe totalscore fullpol fullapo
#   1  -28.02   -2.17    2.81    8.79   -0.12    0.00    0.00     -18.71   29.34   -0.41
#   2   13.91   -1.12    0.17   -5.66   -0.06    0.00    0.00       7.25  -16.33   -0.16
#   3  -23.38   -1.59    0.37   13.43   -0.19    0.00    0.00     -11.35   31.15   -0.43
#   4   -2.68   -0.81    0.14    1.25   -0.08    0.00    0.00      -2.17    3.79   -0.25
#   5   -1.36   -0.66    0.05    0.51   -0.06    0.00    0.00      -1.53    1.56   -0.18
#   6    1.21   -0.82    0.10   -0.75   -0.04    0.00    0.00      -0.31   -2.00   -0.12
#   7    0.30   -1.18    0.32   -0.23   -0.05    0.00    0.00      -0.84   -0.56   -0.12
#   8   -3.84   -0.91    0.18    2.64    0.08    0.00    0.00      -1.85    8.56    0.27
#   9    1.89   -0.61    0.04   -0.15   -0.07    0.00    0.00       1.09   -0.63   -0.30
#  10   -1.48   -0.49    0.04    0.52   -0.06    0.00    0.00      -1.48    2.74   -0.30
#  11    4.75   -0.99    0.69   -2.39   -0.03    0.00    0.00       2.03  -12.83   -0.15
#  12   -3.91   -1.31    0.99    4.94   -0.11    0.00    0.00       0.60   25.65   -0.59
#  13   -5.21   -0.97    0.47    3.19   -0.06    0.00    0.00      -2.57   14.14   -0.25
#  14   -2.02   -0.49    0.04    0.09   -0.04    0.00    0.00      -2.43    0.45   -0.23
#  15    0.52   -0.20    0.00   -0.01   -0.03    0.00    0.00       0.28   -0.12   -0.28
#  16   -1.64   -0.15    0.00    0.00    0.01    0.00    0.00      -1.78   -0.04    0.07
#  17    2.30    0.00    0.00   -0.09    0.01    0.00    0.00       2.22   -2.67    0.29
#  18    0.08   -0.20    0.03    0.02   -0.04    0.00    0.00      -0.12    0.15   -0.37
#  19   -0.35   -0.16    0.01    0.04   -0.03    0.00    0.00      -0.49    0.55   -0.35
#  20   -0.23   -0.08    0.00    0.03   -0.01    0.00    0.00      -0.30    0.74   -0.34
#  21    0.04   -0.06    0.00    0.00   -0.01    0.00    0.00      -0.03    0.09   -0.28
#  22   -0.12   -0.13    0.00   -0.01   -0.02    0.00    0.00      -0.27   -0.22   -0.31
#  23   -0.11   -0.19    0.00   -0.05   -0.03    0.00    0.00      -0.36   -0.67   -0.39
#  24   -0.09   -0.26    0.01   -0.05   -0.05    0.00    0.00      -0.44   -0.51   -0.47
#  25   -0.08   -0.37    0.03   -0.03   -0.06    0.00    0.00      -0.52   -0.26   -0.47
#  26   -0.06   -0.50    0.10    0.02   -0.07    0.00    0.00      -0.51    0.16   -0.44
#  27   -0.09   -0.22    0.01    0.04   -0.03    0.00    0.00      -0.28    0.48   -0.40
#  28    0.45   -0.17    0.01   -0.35   -0.04    0.00    0.00      -0.10   -4.89   -0.63
#  29   -0.43   -0.07    0.00    0.20    0.01    0.00    0.00      -0.29    6.84    0.21
#  30   -0.62   -0.33    0.04    0.87    0.26    0.00    0.00       0.23    7.72    2.32
#  31    0.18   -0.11    0.00   -0.25   -0.03    0.00    0.00      -0.20   -3.79   -0.47
#  32   -0.03   -0.31    0.02    0.10   -0.03    0.00    0.00      -0.24    0.99   -0.31
#  33   -0.12   -0.46    0.05    0.37   -0.07    0.00    0.00      -0.23    2.58   -0.51
#  34   -0.12   -0.46    0.03    0.39   -0.09    0.00    0.00      -0.25    2.26   -0.51
#  35   -0.01   -0.57    0.06    0.03   -0.05    0.00    0.00      -0.54    0.19   -0.27
#  36   -0.16   -0.31    0.02    0.37    0.03    0.00    0.00      -0.05    2.71    0.25
#  37   -3.51   -1.22    0.65    0.05   -0.11    0.00    0.00      -4.14    0.19   -0.39
#  38   -5.08   -1.62    1.34    0.52   -0.16    0.00    0.00      -5.00    1.49   -0.46
#  39    2.05   -0.83    0.10    0.05   -0.09    0.00    0.00       1.27    0.16   -0.30
#  40  -10.46   -1.00    0.20    2.66    0.22    0.00    0.00      -8.39    7.61    0.62
#  41    0.50   -0.18    0.02   -0.44   -0.05    0.00    0.00      -0.16   -2.44   -0.28
#  42    0.63   -0.57    0.43   -0.74   -0.09    0.00    0.00      -0.33   -2.25   -0.27
#  43    1.37   -0.11    0.00   -0.12   -0.03    0.00    0.00       1.12   -1.27   -0.28
#  44    0.81   -0.39    0.09   -0.65   -0.08    0.00    0.00      -0.23   -2.17   -0.28
#  45    1.78   -0.36    0.07   -0.60   -0.09    0.00    0.00       0.79   -1.78   -0.28
#  46    0.71   -0.93    1.31   -0.60   -0.11    0.00    0.00       0.38   -1.49   -0.28
#  47    2.23   -0.36    0.09   -1.13   -0.11    0.00    0.00       0.71   -2.97   -0.28
#  48    0.64   -0.05    0.00    0.06   -0.01    0.00    0.00       0.63    1.23   -0.27
#  49    1.22   -0.07    0.00   -0.03   -0.01    0.00    0.00       1.10   -0.59   -0.15
#  50    0.23   -0.04    0.00    0.04   -0.01    0.00    0.00       0.22    0.99   -0.20
#  51    0.47   -0.21    0.16    0.29   -0.04    0.00    0.00       0.68    2.30   -0.28
#  52    0.30   -0.03    0.00   -0.02   -0.01    0.00    0.00       0.25   -0.53   -0.22
#  53    0.14   -0.02    0.00    0.00    0.00    0.00    0.00       0.12   -0.11   -0.27
#  54    0.15   -0.01    0.00   -0.01    0.00    0.00    0.00       0.13   -0.49   -0.28
#  55    0.19   -0.02    0.00    0.00    0.00    0.00    0.00       0.18    0.07   -0.14
#  56    0.13   -0.01    0.00    0.03    0.00    0.00    0.00       0.15    2.41   -0.27
#  57    0.13   -0.05    0.00    0.12   -0.01    0.00    0.00       0.19    2.59   -0.28
#  58    0.12   -0.07    0.00    0.12   -0.02    0.00    0.00       0.15    1.53   -0.28
#  59    0.10   -0.08    0.00    0.04   -0.02    0.00    0.00       0.04    0.59   -0.28
#  60    0.10   -0.19    0.07   -0.04   -0.04    0.00    0.00      -0.10   -0.23   -0.22
#  61    0.37   -0.01    0.00   -0.44    0.06    0.00    0.00      -0.03   -3.32    0.43
#  62    0.09   -0.02    0.00   -0.01    0.00    0.00    0.00       0.05   -0.93   -0.28
#  63    0.10   -0.02    0.00   -0.01    0.00    0.00    0.00       0.06   -0.81   -0.28
#  64    0.10   -0.15    0.04   -0.23   -0.03    0.00    0.00      -0.28   -2.00   -0.28
#  65    0.08   -0.08    0.00   -0.08   -0.02    0.00    0.00      -0.09   -1.31   -0.28
#  66    0.07   -0.21    0.08   -0.19   -0.05    0.00    0.00      -0.30   -1.16   -0.28
#  67    3.62   -0.28    0.09    0.03   -0.07    0.00    0.00       3.39    0.14   -0.28
#  68    6.70   -0.47    0.36   -0.69   -0.11    0.00    0.00       5.80   -1.74   -0.28

@<TRIPOS>MOLECULE
       AVX38783_0        61
   68    71     0     0     0



@<TRIPOS>ATOM
      1 O1         14.0093   -22.9932    12.7036 O.co2      1          -0.6992
      2 C1         14.5648   -24.0656    12.5366 C.2        1           0.4904
      3 O2         14.0461   -24.9180    11.8361 O.co2      1          -0.7072
      4 C2         15.8951   -24.3352    13.1911 C.3        1          -0.1787
      5 C3         16.9200   -23.3085    12.7049 C.3        1          -0.0836
      6 C4         17.0679   -23.4156    11.1859 C.3        1           0.0528
      7 C5         18.3707   -22.7406    10.7407 C.3        1           0.0184
      8 O3         18.3211   -21.3807    11.1840 O.3        1          -0.2617
      9 C6         17.1790   -20.6951    10.9228 C.ar       1           0.0906
     10 C7         17.1815   -19.2939    10.9758 C.ar       1          -0.0930
     11 C8         18.4172   -18.5683    11.3117 C.2        1           0.5281
     12 O4         18.6742   -18.3053    12.4784 O.co2      1          -0.6373
     13 O5         19.1874   -18.2284    10.4240 O.co2      1          -0.7097
     14 C9         16.0028   -18.5893    10.7073 C.ar       1          -0.1138
     15 C10        15.9957   -17.0832    10.7612 C.3        1           0.0607
     16 N1         15.6579   -16.6435    12.1215 N.4        1          -0.3539
     17 H1         16.1181   -17.2407    12.7921 H          1           0.4369
     18 C11        14.2036   -16.7208    12.3141 C.3        1           0.0284
     19 C12        13.8569   -16.2697    13.7095 C.2        1          -0.1683
     20 C13        13.0651   -15.2415    13.8878 C.2        1          -0.1474
     21 C14        16.1042   -15.2571    12.3130 C.3        1           0.0226
     22 C15        17.5962   -15.1780    12.1153 C.ar       1          -0.0822
     23 C16        18.1151   -14.9222    10.8627 C.ar       1          -0.1053
     24 C17        19.4843   -14.8492    10.6797 C.ar       1          -0.0927
     25 C18        20.3424   -15.0318    11.7499 C.ar       1          -0.1035
     26 C19        19.8366   -15.2877    13.0074 C.ar       1          -0.0818
     27 C20        18.4556   -15.3574    13.2000 C.ar       1          -0.1087
     28 C21        17.9064   -15.6256    14.5462 C.2        1           0.5436
     29 O6         17.1670   -14.8175    15.0730 O.2        1          -0.5090
     30 N2         18.2256   -16.7663    15.1893 N.am       1          -0.7107
     31 C22        17.6814   -17.0320    16.5232 C.3        1           0.2024
     32 C23        18.6563   -17.8744    17.3048 C.2        1          -0.0412
     33 C24        19.6419   -17.4093    18.0935 C.2        1          -0.1767
     34 C25        20.3066   -18.5374    18.6269 C.2        1          -0.2183
     35 C26        19.6875   -19.6244    18.1323 C.2        1          -0.0268
     36 O7         18.6852   -19.2168    17.3367 O.3        1          -0.1704
     37 C27        14.8494   -19.2729    10.3934 C.ar       1          -0.1136
     38 C28        14.8478   -20.6572    10.3409 C.ar       1          -0.1211
     39 C29        16.0065   -21.3701    10.6026 C.ar       1           0.0632
     40 O8         15.9887   -22.7299    10.5429 O.3        1          -0.2987
     41 H2         15.7897   -24.2589    14.2733 H          1           0.0541
     42 H3         16.2326   -25.3378    12.9288 H          1           0.0633
     43 H4         16.5825   -22.3058    12.9673 H          1           0.0738
     44 H5         17.8823   -23.5034    13.1783 H          1           0.0845
     45 H6         17.0704   -24.4640    10.8873 H          1           0.0767
     46 H7         19.2233   -23.2467    11.1935 H          1           0.0738
     47 H8         18.4520   -22.7731     9.6542 H          1           0.1198
     48 H9         16.9819   -16.7053    10.4917 H          1           0.1027
     49 H10        15.2550   -16.6981    10.0604 H          1           0.1589
     50 H11        13.7064   -16.0757    11.5897 H          1           0.1120
     51 H12        13.8723   -17.7495    12.1719 H          1           0.1199
     52 H13        14.2613   -16.7942    14.5626 H          1           0.1407
     53 H14        12.6608   -14.7170    13.0347 H          1           0.0938
     54 H15        12.8167   -14.9182    14.8879 H          1           0.1120
     55 H16        15.6070   -14.6119    11.5886 H          1           0.1637
     56 H17        15.8535   -14.9308    13.3223 H          1           0.1193
     57 H18        17.4508   -14.7790    10.0232 H          1           0.1380
     58 H19        19.8855   -14.6491     9.6972 H          1           0.1364
     59 H20        21.4104   -14.9742    11.6002 H          1           0.1369
     60 H21        20.5072   -15.4301    13.8419 H          1           0.1336
     61 H22        18.8158   -17.4112    14.7689 H          1           0.4011
     62 H23        17.5180   -16.0884    17.0436 H          1           0.1140
     63 H24        16.7348   -17.5643    16.4300 H          1           0.0894
     64 H25        19.8800   -16.3730    18.2826 H          1           0.1525
     65 H26        21.1497   -18.5281    19.3017 H          1           0.1508
     66 H27        19.9495   -20.6508    18.3424 H          1           0.2049
     67 H28        13.9408   -18.7267    10.1872 H          1           0.1206
     68 H29        13.9378   -21.1839    10.0940 H          1           0.1293
@<TRIPOS>BOND
     1    1    2 1
     2    2    3 2
     3    2    4 1
     4    4    5 1
     5    4   41 1
     6    4   42 1
     7    5    6 1
     8    5   43 1
     9    5   44 1
    10    6   40 1
    11    6    7 1
    12    6   45 1
    13    7    8 1
    14    7   46 1
    15    7   47 1
    16    8    9 1
    17    9   39 ar
    18    9   10 ar
    19   10   11 1
    20   10   14 ar
    21   11   12 1
    22   11   13 2
    23   14   15 1
    24   14   37 ar
    25   15   16 1
    26   15   48 1
    27   15   49 1
    28   16   17 1
    29   16   18 1
    30   16   21 1
    31   18   19 1
    32   18   50 1
    33   18   51 1
    34   19   20 2
    35   19   52 1
    36   20   53 1
    37   20   54 1
    38   21   22 1
    39   21   55 1
    40   21   56 1
    41   22   27 ar
    42   22   23 ar
    43   23   24 ar
    44   23   57 1
    45   24   25 ar
    46   24   58 1
    47   25   26 ar
    48   25   59 1
    49   26   27 ar
    50   26   60 1
    51   27   28 1
    52   28   29 2
    53   28   30 am
    54   30   31 1
    55   30   61 1
    56   31   32 1
    57   31   62 1
    58   31   63 1
    59   32   36 1
    60   32   33 2
    61   33   34 1
    62   33   64 1
    63   34   35 2
    64   34   65 1
    65   35   36 1
    66   35   66 1
    67   37   38 ar
    68   37   67 1
    69   38   39 ar
    70   38   68 1
    71   39   40 1
