AVX40811_0, 3
##########                 Name:           AVX40811_0
##########          Protonation:                  100
##########               SMILES:   CC(C)C[C@H](Cc1ccc2c(c1C(=O)[O-])OCO2)CNC(=O)c3cccnc3
##########            Long Name:   l-2-[(pyridine-3-carbonylamino)methyl]pentyl]-1,3-benzodioxole-4-carboxylate
##########          FlexRecCode: 1
##########               Number:                  490
##########   Ligand Source File: /raid1/people/rgc/Examples/sampl4/screening/ligands/build_1//sampl4-hivint-00000
##########           GlobalRank: 80
##########                 Rank:                    1
##########               Setnum:                   34
##########             Matchnum:                16515
##########                Cloud:                    1
##########        Electrostatic:           -40.985325
##########        Van der Waals:           -17.842289
##########  Ligand Polar Desolv:            21.602058
########## Ligand Apolar Desolv:            -1.823619
##########      Internal Energy:             0.000000
##########      Receptor Energy: 0.0
########## Receptor Desolvation:             0.000000
########## Receptor Hydrophobic:             0.000000
##########         Total Energy: -39.05
##########        Ligand Charge:            -1.000000
##########            Arbitrary:    +999.9990
##########     heavy atom count:   28
##########           pose count:    1
##########        Ligand Energy:             0.000000
# num electro vdwattr vdwrepu polsolv apolsol rdesolv rhydroe totalscore fullpol fullapo
#   1   -0.12   -0.17    0.01    0.08   -0.02    0.00    0.00      -0.21    0.85   -0.18
#   2   -0.11   -0.15    0.00    0.12   -0.02    0.00    0.00      -0.15    1.31   -0.18
#   3   -0.13   -0.14    0.00    0.22   -0.02    0.00    0.00      -0.06    2.41   -0.17
#   4   -0.13   -0.47    0.05    0.18   -0.04    0.00    0.00      -0.40    0.93   -0.18
#   5   -0.77   -0.35    0.02    0.39   -0.02    0.00    0.00      -0.73    2.08   -0.12
#   6    0.90   -0.16    0.00   -0.25   -0.04    0.00    0.00       0.45   -2.73   -0.38
#   7   -5.11   -0.32    0.01    1.47    0.26    0.00    0.00      -3.69   11.90    2.13
#   8    1.04   -0.20    0.00   -0.74   -0.05    0.00    0.00       0.06   -9.89   -0.65
#   9   -0.77   -0.08    0.00    0.47    0.01    0.00    0.00      -0.36   13.45    0.40
#  10   -0.34   -0.30    0.01    0.41   -0.06    0.00    0.00      -0.27    3.05   -0.41
#  11   -0.05   -0.89    0.14    0.12   -0.11    0.00    0.00      -0.79    0.48   -0.45
#  12   -0.39   -1.39    0.42    0.26   -0.14    0.00    0.00      -1.24    0.90   -0.48
#  13    0.19   -0.89    0.33   -0.17   -0.20    0.00    0.00      -0.73   -0.81   -0.98
#  14   -0.74   -0.30    0.02    0.58    0.22    0.00    0.00      -0.21    5.32    2.04
#  15    0.22   -0.18    0.01   -0.11   -0.07    0.00    0.00      -0.14   -1.51   -0.93
#  16   -0.87   -0.95    0.19    0.40   -0.06    0.00    0.00      -1.28    1.30   -0.18
#  17   -0.93   -1.25    0.34    0.31   -0.08    0.00    0.00      -1.60    1.01   -0.25
#  18   -1.43   -1.19    0.17    0.23   -0.12    0.00    0.00      -2.34    0.66   -0.35
#  19   -1.46   -1.35    0.33    0.28   -0.18    0.00    0.00      -2.39    0.73   -0.47
#  20    0.25   -1.29    0.18   -0.12   -0.13    0.00    0.00      -1.12   -0.30   -0.33
#  21   -4.21   -2.40    1.32    2.34    0.25    0.00    0.00      -2.70    4.88    0.52
#  22    3.79   -1.51    0.73   -1.38    0.01    0.00    0.00       1.64   -3.12    0.02
#  23   -8.45   -0.95    0.09    3.89    0.19    0.00    0.00      -5.24    9.83    0.48
#  24    1.17   -1.00    0.10    0.24   -0.12    0.00    0.00       0.39    0.66   -0.33
#  25   -2.29   -1.13    0.30    1.47   -0.12    0.00    0.00      -1.77    4.80   -0.39
#  26   19.30   -1.31    0.23   -6.99   -0.04    0.00    0.00      11.20  -19.11   -0.11
#  27  -27.08   -1.88    2.62    9.61   -0.12    0.00    0.00     -16.85   32.77   -0.42
#  28  -29.41   -2.55    0.95   13.20   -0.17    0.00    0.00     -17.98   28.19   -0.37
#  29    0.07   -0.05    0.00   -0.02   -0.01    0.00    0.00       0.00   -0.37   -0.28
#  30    0.04   -0.09    0.01   -0.05   -0.03    0.00    0.00      -0.12   -0.54   -0.28
#  31    0.04   -0.02    0.00   -0.01   -0.01    0.00    0.00      -0.01   -0.48   -0.28
#  32    0.09   -0.02    0.00   -0.02    0.00    0.00    0.00       0.05   -0.76   -0.12
#  33    0.04   -0.04    0.00   -0.04   -0.01    0.00    0.00      -0.05   -1.15   -0.28
#  34    0.06   -0.02    0.00    0.01    0.00    0.00    0.00       0.05    0.35   -0.20
#  35    0.04   -0.08    0.00   -0.04   -0.02    0.00    0.00      -0.10   -0.58   -0.28
#  36    0.08   -0.12    0.01   -0.10   -0.03    0.00    0.00      -0.16   -0.88   -0.22
#  37    0.06   -0.39    0.15   -0.25   -0.06    0.00    0.00      -0.49   -1.04   -0.26
#  38    0.63   -0.10    0.01   -0.09   -0.01    0.00    0.00       0.44   -1.02   -0.10
#  39    0.63   -0.05    0.00   -0.09   -0.01    0.00    0.00       0.48   -1.73   -0.28
#  40    0.28   -0.03    0.00    0.01   -0.01    0.00    0.00       0.25    0.39   -0.28
#  41    5.22   -0.01    0.00   -0.62    0.04    0.00    0.00       4.63   -6.07    0.36
#  42    1.11   -0.31    0.09   -0.34   -0.06    0.00    0.00       0.49   -1.63   -0.27
#  43    0.36   -0.80    1.10   -0.17   -0.10    0.00    0.00       0.40   -0.50   -0.28
#  44    0.23   -0.34    0.37   -0.08   -0.04    0.00    0.00       0.14   -0.55   -0.28
#  45    0.23   -0.01    0.00   -0.03    0.00    0.00    0.00       0.18   -1.77   -0.22
#  46    1.47   -0.25    0.03    0.02   -0.06    0.00    0.00       1.21    0.08   -0.26
#  47    0.86   -0.70    0.35   -0.79   -0.10    0.00    0.00      -0.39   -2.11   -0.26
#  48    0.94   -0.28    0.07   -0.41   -0.07    0.00    0.00       0.24   -1.58   -0.28
#  49    1.10   -0.29    0.08   -0.45   -0.07    0.00    0.00       0.37   -1.69   -0.28
#  50    2.34   -0.92    1.26   -0.88   -0.11    0.00    0.00       1.69   -2.26   -0.28
#  51    1.02   -0.36    0.08   -0.46   -0.08    0.00    0.00       0.20   -1.60   -0.28

@<TRIPOS>MOLECULE
       AVX40811_0       100
   51    53     0     0     0



@<TRIPOS>ATOM
      1 C1         18.7012   -14.3363    10.0788 C.3        1          -0.1415
      2 C2         17.1809   -14.2457     9.9327 C.3        1          -0.1162
      3 C3         16.8071   -12.8952     9.3184 C.3        1          -0.1546
      4 C4         16.6878   -15.3734     9.0239 C.3        1          -0.1037
      5 C5         17.0615   -16.7238     9.6384 C.3        1          -0.1226
      6 C6         16.4081   -16.8560    11.0155 C.3        1           0.1294
      7 N1         14.9523   -16.7692    10.8755 N.am       1          -0.7118
      8 C7         14.2716   -15.7924    11.5071 C.2        1           0.5589
      9 O1         14.8655   -14.9834    12.1929 O.2        1          -0.5371
     10 C8         12.8027   -15.7049    11.3659 C.ar       1          -0.1801
     11 C9         12.1667   -16.2001    10.2210 C.ar       1          -0.0185
     12 C10        10.7897   -16.0943    10.1381 C.ar       1          -0.1805
     13 C11        10.0918   -15.5079    11.1789 C.ar       1           0.1160
     14 N2         10.7178   -15.0498    12.2458 N.ar       1          -0.4869
     15 C12        12.0260   -15.1323    12.3737 C.ar       1           0.1346
     16 C13        16.5682   -17.8516     8.7295 C.3        1          -0.0644
     17 C14        17.3272   -19.1158     9.0407 C.ar       1          -0.0515
     18 C15        18.6972   -19.1479     8.9047 C.ar       1          -0.1145
     19 C16        19.4028   -20.3058     9.1890 C.ar       1          -0.1167
     20 C17        18.7392   -21.4445     9.6132 C.ar       1           0.0155
     21 O2         19.1970   -22.6860     9.9499 O.3        1          -0.3171
     22 C18        18.1258   -23.3023    10.6889 C.3        1           0.2109
     23 O3         16.9440   -22.6557    10.1805 O.3        1          -0.2991
     24 C19        17.3539   -21.4287     9.7561 C.ar       1           0.0478
     25 C20        16.6408   -20.2559     9.4735 C.ar       1          -0.0866
     26 C21        15.1773   -20.2250     9.6260 C.2        1           0.5359
     27 O4         14.6806   -19.8975    10.6951 O.co2      1          -0.6781
     28 O5         14.4576   -20.5267     8.6840 O.co2      1          -0.6729
     29 H1         18.9675   -15.2983    10.5164 H          1           0.0484
     30 H2         19.1668   -14.2420     9.0978 H          1           0.0487
     31 H3         19.0525   -13.5329    10.7263 H          1           0.0471
     32 H4         16.7154   -14.3398    10.9138 H          1           0.0935
     33 H5         15.7241   -12.8307     9.2144 H          1           0.0430
     34 H6         17.1584   -12.0918     9.9659 H          1           0.0801
     35 H7         17.2726   -12.8010     8.3373 H          1           0.0441
     36 H8         15.6048   -15.3088     8.9199 H          1           0.0540
     37 H9         17.1533   -15.2794     8.0428 H          1           0.0595
     38 H10        18.1446   -16.7883     9.7423 H          1           0.1279
     39 H11        16.6743   -17.8181    11.4532 H          1           0.0631
     40 H12        16.7593   -16.0526    11.6629 H          1           0.0768
     41 H13        14.4784   -17.4148    10.3284 H          1           0.3999
     42 H14        12.7364   -16.6530     9.4229 H          1           0.1476
     43 H15        10.2652   -16.4650     9.2698 H          1           0.1418
     44 H16         9.0169   -15.4236    11.1166 H          1           0.1599
     45 H17        12.5021   -14.7500    13.2645 H          1           0.1589
     46 H18        15.5040   -18.0157     8.8991 H          1           0.0836
     47 H19        16.7319   -17.5765     7.6876 H          1           0.0703
     48 H20        19.2247   -18.2654     8.5740 H          1           0.1306
     49 H21        20.4770   -20.3204     9.0787 H          1           0.1256
     50 H22        18.0911   -24.3737    10.4914 H          1           0.1241
     51 H23        18.2375   -23.1118    11.7563 H          1           0.0769
@<TRIPOS>BOND
     1    1    2 1
     2    1   29 1
     3    1   30 1
     4    1   31 1
     5    2    3 1
     6    2    4 1
     7    2   32 1
     8    3   33 1
     9    3   34 1
    10    3   35 1
    11    4    5 1
    12    4   36 1
    13    4   37 1
    14    5    6 1
    15    5   16 1
    16    5   38 1
    17    6    7 1
    18    6   39 1
    19    6   40 1
    20    7    8 am
    21    7   41 1
    22    8    9 2
    23    8   10 1
    24   10   15 ar
    25   10   11 ar
    26   11   12 ar
    27   11   42 1
    28   12   13 ar
    29   12   43 1
    30   13   14 ar
    31   13   44 1
    32   14   15 ar
    33   15   45 1
    34   16   17 1
    35   16   46 1
    36   16   47 1
    37   17   25 ar
    38   17   18 ar
    39   18   19 ar
    40   18   48 1
    41   19   20 ar
    42   19   49 1
    43   20   24 ar
    44   20   21 1
    45   21   22 1
    46   22   23 1
    47   22   50 1
    48   22   51 1
    49   23   24 1
    50   24   25 ar
    51   25   26 1
    52   26   27 1
    53   26   28 2
