AVX40911_0, 3
##########                 Name:           AVX40911_0
##########          Protonation:                  100
##########               SMILES:   c1ccc(cc1)/C=C/c2ccc3c(c2C(=O)[O-])OCO3
##########            Long Name:   5-[(E)-styryl]-1,3-benzodioxole-4-carboxylate
##########          FlexRecCode: 1
##########               Number:                  359
##########   Ligand Source File: /raid1/people/rgc/Examples/sampl4/screening/ligands/build_1//sampl4-hivint-00000
##########           GlobalRank: 24
##########                 Rank:                    1
##########               Setnum:                    6
##########             Matchnum:                 1498
##########                Cloud:                    1
##########        Electrostatic:           -46.916679
##########        Van der Waals:           -20.470459
##########  Ligand Polar Desolv:            25.418974
########## Ligand Apolar Desolv:            -3.019864
##########      Internal Energy:             0.000000
##########      Receptor Energy: 0.0
########## Receptor Desolvation:             0.000000
########## Receptor Hydrophobic:             0.000000
##########         Total Energy: -44.99
##########        Ligand Charge:            -1.000000
##########            Arbitrary:    +999.9990
##########     heavy atom count:   20
##########           pose count:    1
##########        Ligand Energy:             0.000000
# num electro vdwattr vdwrepu polsolv apolsol rdesolv rhydroe totalscore fullpol fullapo
#   1  -36.48   -2.83    2.46   14.46   -0.18    0.00    0.00     -22.58   32.95   -0.41
#   2   23.88   -1.62    0.73   -7.97   -0.05    0.00    0.00      14.98  -20.80   -0.13
#   3  -23.65   -0.92    0.10   11.48   -0.14    0.00    0.00     -13.14   33.59   -0.41
#   4   -2.73   -1.32    0.43    2.09   -0.13    0.00    0.00      -1.66    6.39   -0.40
#   5    1.86   -2.11    1.89    0.12   -0.12    0.00    0.00       1.64    0.32   -0.33
#   6  -13.77   -2.17    1.19    4.52    0.22    0.00    0.00     -10.02   10.04    0.48
#   7    7.43   -1.26    0.28   -1.53    0.01    0.00    0.00       4.92   -3.04    0.02
#   8   -8.45   -2.56    2.31    2.19    0.25    0.00    0.00      -6.26    4.66    0.53
#   9    0.78   -1.88    0.70   -0.18   -0.13    0.00    0.00      -0.70   -0.44   -0.33
#  10   -2.21   -1.95    0.45    0.21   -0.20    0.00    0.00      -3.70    0.49   -0.47
#  11   -1.97   -1.68    0.40    0.35   -0.17    0.00    0.00      -3.08    0.89   -0.44
#  12   -1.24   -0.91    0.07    0.31   -0.13    0.00    0.00      -1.90    0.97   -0.40
#  13   -1.14   -0.80    0.05    1.45   -0.13    0.00    0.00      -0.57    4.52   -0.41
#  14   -2.45   -1.29    0.17    0.05   -0.18    0.00    0.00      -3.70    0.13   -0.42
#  15   -0.47   -1.38    0.39    0.70   -0.16    0.00    0.00      -0.93    1.83   -0.41
#  16   -1.27   -1.01    0.24    0.97   -0.13    0.00    0.00      -1.20    3.18   -0.44
#  17   -0.71   -1.13    0.24    0.66   -0.15    0.00    0.00      -1.09    2.10   -0.47
#  18   -0.73   -1.46    0.32    0.31   -0.17    0.00    0.00      -1.73    0.85   -0.47
#  19   -0.81   -1.59    0.35    0.33   -0.21    0.00    0.00      -1.94    0.74   -0.47
#  20   -1.00   -2.00    0.91    0.28   -0.21    0.00    0.00      -2.01    0.61   -0.45
#  21    3.81   -0.30    0.05   -0.75   -0.09    0.00    0.00       2.72   -2.29   -0.28
#  22    2.91   -0.50    0.17   -0.92   -0.16    0.00    0.00       1.50   -1.66   -0.28
#  23    1.25   -0.76    0.46   -0.79   -0.12    0.00    0.00       0.03   -1.79   -0.28
#  24    1.68   -0.77    0.69   -0.69   -0.08    0.00    0.00       0.83   -1.94   -0.22
#  25    2.39   -0.11    0.01   -0.11   -0.02    0.00    0.00       2.16   -1.07   -0.18
#  26    2.11   -0.42    0.14   -0.80   -0.09    0.00    0.00       0.94   -2.00   -0.22
#  27    1.72   -0.11    0.01   -0.18   -0.03    0.00    0.00       1.41   -1.42   -0.21
#  28    0.47   -0.16    0.02   -0.25   -0.04    0.00    0.00       0.04   -1.79   -0.28
#  29    0.49   -0.38    0.23   -0.26   -0.07    0.00    0.00       0.00   -1.04   -0.28
#  30    0.60   -0.29    0.03   -0.23   -0.10    0.00    0.00       0.02   -0.65   -0.28
#  31    0.81   -0.56    0.28   -0.40   -0.12    0.00    0.00       0.02   -0.95   -0.28

@<TRIPOS>MOLECULE
       AVX40911_0       100
   31    33     0     0     0



@<TRIPOS>ATOM
      1 O1         13.5365   -21.3680    10.0066 O.co2      1          -0.6759
      2 C1         14.7476   -21.4034    10.1798 C.2        1           0.5308
      3 O2         15.4377   -20.4392     9.8761 O.co2      1          -0.6764
      4 C2         15.3717   -22.5998    10.7573 C.ar       1          -0.0694
      5 C3         14.5894   -23.7077    11.1014 C.ar       1           0.0439
      6 O3         13.2541   -23.9467    11.0119 O.3        1          -0.2976
      7 C4         12.9719   -25.0302    11.9102 C.3        1           0.2104
      8 O4         14.2101   -25.7558    11.8873 O.3        1          -0.3153
      9 C5         15.1911   -24.8392    11.6494 C.ar       1           0.0266
     10 C6         16.5618   -24.8716    11.8542 C.ar       1          -0.1175
     11 C7         17.3477   -23.7871    11.5197 C.ar       1          -0.1037
     12 C8         16.7700   -22.6452    10.9655 C.ar       1          -0.0470
     13 C9         17.6087   -21.4935    10.6040 C.2        1          -0.0556
     14 C10        18.5907   -21.6354     9.6959 C.2        1          -0.1438
     15 C11        19.4312   -20.4811     9.3336 C.ar       1          -0.0379
     16 C12        18.9839   -19.1806     9.5832 C.ar       1          -0.1148
     17 C13        19.7764   -18.1050     9.2412 C.ar       1          -0.1155
     18 C14        21.0115   -18.3109     8.6520 C.ar       1          -0.1314
     19 C15        21.4612   -19.5955     8.4018 C.ar       1          -0.1229
     20 C16        20.6826   -20.6812     8.7438 C.ar       1          -0.1172
     21 H1         12.7549   -24.6600    12.9122 H          1           0.1263
     22 H2         12.1527   -25.6443    11.5359 H          1           0.0787
     23 H3         17.0188   -25.7527    12.2797 H          1           0.1299
     24 H4         18.4145   -23.8245    11.6845 H          1           0.1360
     25 H5         17.4364   -20.5334    11.0676 H          1           0.1291
     26 H6         18.7628   -22.5954     9.2323 H          1           0.1217
     27 H7         18.0199   -19.0184    10.0423 H          1           0.1302
     28 H8         19.4321   -17.0996     9.4334 H          1           0.1216
     29 H9         21.6275   -17.4646     8.3857 H          1           0.1171
     30 H10        22.4261   -19.7483     7.9413 H          1           0.1183
     31 H11        21.0370   -21.6833     8.5523 H          1           0.1213
@<TRIPOS>BOND
     1    1    2 1
     2    2    3 2
     3    2    4 1
     4    4   12 ar
     5    4    5 ar
     6    5    9 ar
     7    5    6 1
     8    6    7 1
     9    7    8 1
    10    7   21 1
    11    7   22 1
    12    8    9 1
    13    9   10 ar
    14   10   11 ar
    15   10   23 1
    16   11   12 ar
    17   11   24 1
    18   12   13 1
    19   13   14 2
    20   13   25 1
    21   14   15 1
    22   14   26 1
    23   15   20 ar
    24   15   16 ar
    25   16   17 ar
    26   16   27 1
    27   17   18 ar
    28   17   28 1
    29   18   19 ar
    30   18   29 1
    31   19   20 ar
    32   19   30 1
    33   20   31 1
