AVX40812_0, 3
##########                 Name:           AVX40812_0
##########          Protonation:                  100
##########               SMILES:   CC(C)C[C@H](Cc1ccc2c(c1C(=O)[O-])OCO2)CNC(=O)Cc3c[nH]c4c3cccc4
##########            Long Name:   ol-3-yl)acetyl]amino]methyl]-4-methyl-pentyl]-1,3-benzodioxole-4-carboxylate
##########          FlexRecCode: 1
##########               Number:                  494
##########   Ligand Source File: /raid1/people/rgc/Examples/sampl4/screening/ligands/build_1//sampl4-hivint-00000
##########           GlobalRank: 66
##########                 Rank:                    1
##########               Setnum:                  108
##########             Matchnum:                 9397
##########                Cloud:                    1
##########        Electrostatic:           -50.391491
##########        Van der Waals:           -17.276501
##########  Ligand Polar Desolv:            29.022429
########## Ligand Apolar Desolv:            -2.147550
##########      Internal Energy:             0.000000
##########      Receptor Energy: 0.0
########## Receptor Desolvation:             0.000000
########## Receptor Hydrophobic:             0.000000
##########         Total Energy: -40.79
##########        Ligand Charge:            -1.000000
##########            Arbitrary:    +999.9990
##########     heavy atom count:   32
##########           pose count:    1
##########        Ligand Energy:             0.000000
# num electro vdwattr vdwrepu polsolv apolsol rdesolv rhydroe totalscore fullpol fullapo
#   1   -0.15   -0.08    0.00    0.04   -0.01    0.00    0.00      -0.21    0.83   -0.18
#   2   -0.16   -0.09    0.00    0.06   -0.01    0.00    0.00      -0.20    1.35   -0.18
#   3   -0.17   -0.06    0.00    0.09   -0.01    0.00    0.00      -0.15    2.45   -0.18
#   4   -0.36   -0.26    0.01    0.14   -0.03    0.00    0.00      -0.49    0.87   -0.18
#   5   -1.28   -0.29    0.01    0.39   -0.02    0.00    0.00      -1.19    2.06   -0.12
#   6    1.57   -0.32    0.07   -0.41   -0.05    0.00    0.00       0.85   -2.87   -0.38
#   7  -14.92   -0.77    0.43    1.92    0.35    0.00    0.00     -12.99   11.62    2.14
#   8    6.83   -0.43    0.05   -1.37   -0.11    0.00    0.00       4.98   -8.50   -0.66
#   9   -3.97   -0.31    0.02    1.95    0.05    0.00    0.00      -2.26   13.84    0.38
#  10   -0.96   -0.39    0.04    0.11   -0.06    0.00    0.00      -1.25    0.51   -0.27
#  11   -1.36   -0.55    0.04    0.61   -0.07    0.00    0.00      -1.32    2.98   -0.33
#  12    0.30   -0.49    0.04   -0.15   -0.17    0.00    0.00      -0.47   -0.88   -0.99
#  13   -1.74   -0.41    0.03    0.65    0.17    0.00    0.00      -1.30    4.57    1.17
#  14    0.35   -0.57    0.11   -0.10   -0.11    0.00    0.00      -0.32   -0.70   -0.78
#  15   -0.21   -0.54    0.10    0.18   -0.07    0.00    0.00      -0.54    1.27   -0.48
#  16   -0.15   -0.64    0.07    0.25   -0.09    0.00    0.00      -0.57    1.29   -0.47
#  17   -0.54   -0.98    0.13    0.61   -0.12    0.00    0.00      -0.90    2.34   -0.47
#  18   -0.62   -0.77    0.06    0.58   -0.12    0.00    0.00      -0.87    2.30   -0.47
#  19   -0.74   -0.61    0.07    0.48   -0.09    0.00    0.00      -0.90    2.39   -0.44
#  20   -1.26   -0.93    0.18    0.45   -0.06    0.00    0.00      -1.63    1.38   -0.18
#  21   -1.18   -1.57    0.71    0.32   -0.07    0.00    0.00      -1.79    1.01   -0.23
#  22   -1.90   -1.23    0.27    0.23   -0.12    0.00    0.00      -2.75    0.70   -0.36
#  23   -1.88   -1.27    0.23    0.27   -0.17    0.00    0.00      -2.84    0.72   -0.47
#  24    0.30   -1.47    0.27   -0.13   -0.14    0.00    0.00      -1.18   -0.31   -0.33
#  25   -5.47   -2.34    1.34    2.49    0.27    0.00    0.00      -3.72    4.88    0.52
#  26    4.94   -1.82    1.02   -1.51    0.01    0.00    0.00       2.64   -3.13    0.02
#  27  -10.87   -2.30    1.61    4.48    0.22    0.00    0.00      -6.86    9.87    0.48
#  28    1.51   -1.67    0.49    0.26   -0.14    0.00    0.00       0.45    0.63   -0.33
#  29   -2.98   -1.75    0.86    1.81   -0.15    0.00    0.00      -2.21    4.82   -0.40
#  30   24.29   -2.04    0.55   -8.55   -0.05    0.00    0.00      14.20  -19.36   -0.12
#  31  -36.36   -3.22    5.96   13.26   -0.17    0.00    0.00     -20.52   33.07   -0.42
#  32  -34.19   -4.20    4.26   15.35   -0.19    0.00    0.00     -18.96   28.52   -0.36
#  33    0.14   -0.03    0.00   -0.01   -0.01    0.00    0.00       0.09   -0.34   -0.28
#  34    0.04   -0.03    0.00   -0.02   -0.01    0.00    0.00      -0.01   -0.55   -0.28
#  35    0.04   -0.01    0.00   -0.01    0.00    0.00    0.00       0.01   -0.50   -0.28
#  36    0.14   -0.02    0.00   -0.02    0.00    0.00    0.00       0.11   -0.73   -0.11
#  37    0.05   -0.02    0.00   -0.02   -0.01    0.00    0.00       0.00   -1.19   -0.28
#  38    0.08   -0.01    0.00    0.00    0.00    0.00    0.00       0.07    0.36   -0.19
#  39    0.04   -0.03    0.00   -0.01   -0.01    0.00    0.00       0.00   -0.56   -0.28
#  40    0.16   -0.09    0.00   -0.07   -0.02    0.00    0.00      -0.01   -0.93   -0.22
#  41    0.11   -0.12    0.01   -0.13   -0.03    0.00    0.00      -0.17   -1.04   -0.26
#  42    1.05   -0.06    0.00   -0.05   -0.01    0.00    0.00       0.94   -0.90   -0.11
#  43    0.32   -0.04    0.00   -0.08   -0.01    0.00    0.00       0.18   -1.63   -0.28
#  44    0.98   -0.17    0.07    0.11   -0.04    0.00    0.00       0.96    0.81   -0.28
#  45   13.21   -0.02    0.00   -0.90    0.08    0.00    0.00      12.36   -5.69    0.49
#  46    2.08   -0.10    0.01   -0.12   -0.03    0.00    0.00       1.85   -1.23   -0.28
#  47    1.09   -0.25    0.12   -0.20   -0.05    0.00    0.00       0.70   -1.16   -0.28
#  48    0.64   -0.10    0.01   -0.09   -0.03    0.00    0.00       0.43   -0.90   -0.28
#  49    0.56    0.00    0.00   -0.09    0.03    0.00    0.00       0.50   -1.71    0.59
#  50    0.08   -0.06    0.00   -0.07   -0.02    0.00    0.00      -0.06   -1.11   -0.28
#  51    0.02   -0.10    0.00   -0.11   -0.02    0.00    0.00      -0.21   -1.30   -0.28
#  52    0.00   -0.39    0.17   -0.44   -0.07    0.00    0.00      -0.72   -1.76   -0.28
#  53    1.83   -0.14    0.01   -0.25   -0.04    0.00    0.00       1.40   -1.70   -0.28
#  54    2.22   -0.36    0.09    0.05   -0.07    0.00    0.00       1.92    0.17   -0.26
#  55    1.05   -0.56    0.24   -0.74   -0.09    0.00    0.00      -0.09   -2.18   -0.26
#  56    1.30   -0.20    0.03   -0.34   -0.06    0.00    0.00       0.72   -1.66   -0.28
#  57    1.41   -0.24    0.03   -0.48   -0.08    0.00    0.00       0.66   -1.72   -0.28
#  58    2.82   -1.05    1.74   -1.14   -0.14    0.00    0.00       2.24   -2.28   -0.28
#  59    1.47   -0.43    0.16   -0.49   -0.09    0.00    0.00       0.61   -1.60   -0.28

@<TRIPOS>MOLECULE
       AVX40812_0       100
   59    62     0     0     0



@<TRIPOS>ATOM
      1 C1         17.0212   -14.8549    11.2605 C.3        1          -0.1408
      2 C2         15.5081   -14.9513    11.0556 C.3        1          -0.1168
      3 C3         14.9439   -13.5603    10.7597 C.3        1          -0.1549
      4 C4         15.2109   -15.8830     9.8790 C.3        1          -0.1017
      5 C5         15.7750   -17.2741    10.1749 C.3        1          -0.1202
      6 C6         15.1231   -17.8298    11.4425 C.3        1           0.1310
      7 N1         15.6632   -19.1618    11.7257 N.am       1          -0.7237
      8 C7         16.7573   -19.2945    12.5015 C.2        1           0.5090
      9 O1         17.2949   -18.3110    12.9650 O.2        1          -0.5348
     10 C8         17.3127   -20.6647    12.7929 C.3        1          -0.0671
     11 C9         17.2962   -20.9075    14.2801 C.2        1          -0.1460
     12 C10        17.6817   -20.0455    15.2343 C.2        1           0.0589
     13 N2         17.5242   -20.6148    16.4685 N.pl3      1          -0.5961
     14 C11        17.0207   -21.8893    16.3352 C.ar       1           0.0946
     15 C12        16.6798   -22.8846    17.2456 C.ar       1          -0.1348
     16 C13        16.1868   -24.0879    16.7911 C.ar       1          -0.1006
     17 C14        16.0258   -24.3191    15.4317 C.ar       1          -0.1478
     18 C15        16.3543   -23.3556    14.5202 C.ar       1          -0.0645
     19 C16        16.8503   -22.1264    14.9591 C.ar       1          -0.0891
     20 C17        15.4778   -18.2057     8.9980 C.3        1          -0.0658
     21 C18        16.4151   -19.3850     9.0417 C.ar       1          -0.0493
     22 C19        17.7763   -19.1858     8.9787 C.ar       1          -0.1159
     23 C20        18.6449   -20.2643     9.0187 C.ar       1          -0.1164
     24 C21        18.1552   -21.5552     9.1224 C.ar       1           0.0142
     25 O2         18.7910   -22.7622     9.1795 O.3        1          -0.3173
     26 C22        17.8125   -23.6871     9.6898 C.3        1           0.2110
     27 O3         16.5557   -23.1130     9.2845 O.3        1          -0.2990
     28 C23        16.7814   -21.7739     9.1873 C.ar       1           0.0482
     29 C24        15.9029   -20.6827     9.1523 C.ar       1          -0.0872
     30 C25        14.4492   -20.9004     9.2258 C.2        1           0.5367
     31 O4         13.8874   -20.9175    10.3125 O.co2      1          -0.6781
     32 O5         13.8026   -21.0642     8.2002 O.co2      1          -0.6731
     33 H1         17.4231   -15.8460    11.4713 H          1           0.0475
     34 H2         17.4857   -14.4591    10.3574 H          1           0.0480
     35 H3         17.2328   -14.1912    12.0988 H          1           0.0463
     36 H4         15.0436   -15.3471    11.9588 H          1           0.0930
     37 H5         13.8659   -13.6289    10.6137 H          1           0.0420
     38 H6         15.1555   -12.8964    11.5978 H          1           0.0840
     39 H7         15.4083   -13.1645     9.8565 H          1           0.0420
     40 H8         14.1330   -15.9515     9.7331 H          1           0.0557
     41 H9         15.6753   -15.4872     8.9758 H          1           0.0571
     42 H10        16.8530   -17.2055    10.3207 H          1           0.1241
     43 H11        15.3347   -17.1661    12.2809 H          1           0.0582
     44 H12        14.0450   -17.8983    11.2965 H          1           0.0707
     45 H13        15.2332   -19.9483    11.3550 H          1           0.3993
     46 H14        16.7020   -21.4178    12.2950 H          1           0.1004
     47 H15        18.3373   -20.7270    12.4260 H          1           0.0974
     48 H16        18.0605   -19.0502    15.0543 H          1           0.1674
     49 H17        17.7357   -20.1847    17.3117 H          1           0.4137
     50 H18        16.8017   -22.7145    18.3052 H          1           0.1162
     51 H19        15.9230   -24.8593    17.4994 H          1           0.1222
     52 H20        15.6382   -25.2682    15.0919 H          1           0.1216
     53 H21        16.2264   -23.5426    13.4642 H          1           0.1213
     54 H22        14.4481   -18.5573     9.0641 H          1           0.0846
     55 H23        15.6177   -17.6649     8.0621 H          1           0.0690
     56 H24        18.1689   -18.1830     8.8971 H          1           0.1302
     57 H25        19.7107   -20.0971     8.9683 H          1           0.1252
     58 H26        17.9460   -24.6718     9.2419 H          1           0.1238
     59 H27        17.8731   -23.7481    10.7764 H          1           0.0767
@<TRIPOS>BOND
     1    1    2 1
     2    1   33 1
     3    1   34 1
     4    1   35 1
     5    2    3 1
     6    2    4 1
     7    2   36 1
     8    3   37 1
     9    3   38 1
    10    3   39 1
    11    4    5 1
    12    4   40 1
    13    4   41 1
    14    5    6 1
    15    5   20 1
    16    5   42 1
    17    6    7 1
    18    6   43 1
    19    6   44 1
    20    7    8 am
    21    7   45 1
    22    8    9 2
    23    8   10 1
    24   10   11 1
    25   10   46 1
    26   10   47 1
    27   11   19 1
    28   11   12 2
    29   12   13 1
    30   12   48 1
    31   13   14 1
    32   13   49 1
    33   14   19 ar
    34   14   15 ar
    35   15   16 ar
    36   15   50 1
    37   16   17 ar
    38   16   51 1
    39   17   18 ar
    40   17   52 1
    41   18   19 ar
    42   18   53 1
    43   20   21 1
    44   20   54 1
    45   20   55 1
    46   21   29 ar
    47   21   22 ar
    48   22   23 ar
    49   22   56 1
    50   23   24 ar
    51   23   57 1
    52   24   28 ar
    53   24   25 1
    54   25   26 1
    55   26   27 1
    56   26   58 1
    57   26   59 1
    58   27   28 1
    59   28   29 ar
    60   29   30 1
    61   30   31 1
    62   30   32 2
