GL5243106_0, 3
##########                 Name:          GL5243106_0
##########          Protonation:                  100
##########               SMILES:   CC(C)C[C@H](Cc1ccc2c(c1C(=O)[O-])OCO2)CNC(=O)c3ccc(cc3)N
##########            Long Name:   4-aminobenzoyl)amino]methyl]-4-methyl-pentyl]-1,3-benzodioxole-4-carboxylate
##########          FlexRecCode: 1
##########               Number:                  599
##########   Ligand Source File: /raid1/people/rgc/Examples/sampl4/screening/ligands/build_1//sampl4-hivint-00000
##########           GlobalRank: 81
##########                 Rank:                    1
##########               Setnum:                   48
##########             Matchnum:                15350
##########                Cloud:                    1
##########        Electrostatic:           -41.569115
##########        Van der Waals:           -14.693950
##########  Ligand Polar Desolv:            18.888121
########## Ligand Apolar Desolv:            -1.576661
##########      Internal Energy:             0.000000
##########      Receptor Energy: 0.0
########## Receptor Desolvation:             0.000000
########## Receptor Hydrophobic:             0.000000
##########         Total Energy: -38.95
##########        Ligand Charge:            -1.000000
##########            Arbitrary:    +999.9990
##########     heavy atom count:   29
##########           pose count:    1
##########        Ligand Energy:             0.000000
# num electro vdwattr vdwrepu polsolv apolsol rdesolv rhydroe totalscore fullpol fullapo
#   1   -0.31   -0.07    0.00    0.03   -0.01    0.00    0.00      -0.35    0.81   -0.18
#   2   -0.14   -0.10    0.00    0.07   -0.01    0.00    0.00      -0.17    1.33   -0.18
#   3   -0.14   -0.08    0.00    0.11   -0.01    0.00    0.00      -0.11    2.39   -0.17
#   4   -0.29   -0.29    0.01    0.16   -0.03    0.00    0.00      -0.44    0.98   -0.18
#   5   -1.05   -0.35    0.01    0.46   -0.03    0.00    0.00      -0.96    2.16   -0.12
#   6    0.73   -0.40    0.03   -0.63   -0.08    0.00    0.00      -0.35   -3.00   -0.38
#   7   -1.49   -1.24    0.28    3.44    0.55    0.00    0.00       1.54   13.24    2.13
#   8    0.88   -0.60    0.08   -1.96   -0.11    0.00    0.00      -1.72  -11.08   -0.65
#   9   -0.73   -0.18    0.00    1.28    0.03    0.00    0.00       0.41   15.80    0.41
#  10   -0.26   -0.91    0.30    0.84   -0.09    0.00    0.00      -0.12    3.97   -0.41
#  11   -0.05   -2.55    2.34    0.12   -0.14    0.00    0.00      -0.29    0.37   -0.44
#  12   -0.24   -2.08    1.06    0.55   -0.16    0.00    0.00      -0.87    1.57   -0.46
#  13    0.21   -0.75    0.11   -0.42   -0.17    0.00    0.00      -1.02   -1.79   -0.73
#  14   -0.52   -0.65    0.07    0.37    0.19    0.00    0.00      -0.54    1.70    0.90
#  15   -0.18   -0.34    0.03    0.27   -0.06    0.00    0.00      -0.29    1.97   -0.46
#  16   -0.01   -0.37    0.04    0.07   -0.06    0.00    0.00      -0.34    0.51   -0.46
#  17   -1.06   -1.24    0.34    0.49   -0.06    0.00    0.00      -1.53    1.39   -0.18
#  18   -0.95   -1.78    0.75    0.34   -0.08    0.00    0.00      -1.72    1.05   -0.25
#  19   -1.32   -2.56    1.51    0.25   -0.13    0.00    0.00      -2.25    0.68   -0.35
#  20   -1.33   -1.91    0.59    0.27   -0.18    0.00    0.00      -2.56    0.70   -0.47
#  21    0.22   -1.33    0.25   -0.13   -0.12    0.00    0.00      -1.11   -0.34   -0.33
#  22   -3.58   -1.42    0.32    2.11    0.23    0.00    0.00      -2.35    4.85    0.52
#  23    2.45   -1.30    0.40   -1.30    0.01    0.00    0.00       0.26   -3.11    0.02
#  24   -6.06   -0.83    0.05    3.90    0.19    0.00    0.00      -2.76    9.89    0.48
#  25    1.01   -1.03    0.16    0.21   -0.11    0.00    0.00       0.24    0.64   -0.33
#  26   -2.19   -1.15    0.31    1.46   -0.12    0.00    0.00      -1.69    4.89   -0.39
#  27   19.13   -1.13    0.25   -6.53   -0.04    0.00    0.00      11.68  -19.45   -0.11
#  28  -25.11   -1.88    3.46    8.14   -0.10    0.00    0.00     -15.51   33.42   -0.42
#  29  -30.54   -1.58    0.25   12.39   -0.16    0.00    0.00     -19.64   28.71   -0.37
#  30    0.18   -0.02    0.00   -0.01   -0.01    0.00    0.00       0.14   -0.38   -0.28
#  31    0.12   -0.03    0.00   -0.01   -0.01    0.00    0.00       0.07   -0.54   -0.28
#  32    0.05   -0.01    0.00   -0.01    0.00    0.00    0.00       0.03   -0.48   -0.28
#  33    0.12   -0.02    0.00   -0.02    0.00    0.00    0.00       0.08   -0.76   -0.12
#  34    0.04   -0.03    0.00   -0.03   -0.01    0.00    0.00      -0.03   -1.18   -0.28
#  35    0.06   -0.01    0.00    0.01    0.00    0.00    0.00       0.06    0.43   -0.20
#  36    0.04   -0.03    0.00   -0.02   -0.01    0.00    0.00      -0.01   -0.61   -0.28
#  37    0.07   -0.16    0.02   -0.13   -0.03    0.00    0.00      -0.22   -0.93   -0.22
#  38    0.19   -0.10    0.00   -0.11   -0.03    0.00    0.00      -0.04   -1.11   -0.26
#  39    1.35   -0.06    0.00   -0.05    0.00    0.00    0.00       1.23   -1.09   -0.10
#  40    0.75   -0.19    0.02   -0.33   -0.05    0.00    0.00       0.20   -1.78   -0.28
#  41    0.13   -0.05    0.00    0.02   -0.01    0.00    0.00       0.10    0.63   -0.28
#  42    1.05   -0.05    0.00   -2.19    0.12    0.00    0.00      -1.06   -6.61    0.36
#  43    0.22   -1.05    1.91   -0.57   -0.09    0.00    0.00       0.42   -1.39   -0.22
#  44    0.15   -0.84    1.31   -0.36   -0.13    0.00    0.00       0.14   -0.79   -0.28
#  45    0.22   -0.02    0.00    0.00    0.13    0.00    0.00       0.32   -0.01    0.59
#  46    0.18    0.00    0.00   -0.01    0.03    0.00    0.00       0.19   -0.18    0.59
#  47    0.08   -0.03    0.00   -0.03   -0.01    0.00    0.00       0.02   -1.09   -0.28
#  48    0.13   -0.03    0.00   -0.06   -0.01    0.00    0.00       0.04   -1.70   -0.27
#  49    2.13   -0.53    0.22    0.05   -0.08    0.00    0.00       1.78    0.15   -0.26
#  50    0.81   -0.73    0.42   -0.86   -0.10    0.00    0.00      -0.46   -2.25   -0.26
#  51    0.50   -1.15    3.25   -0.62   -0.10    0.00    0.00       1.87   -1.69   -0.28
#  52    0.94   -0.51    0.26   -0.64   -0.10    0.00    0.00      -0.06   -1.72   -0.28
#  53    1.25   -0.90    1.06   -0.95   -0.12    0.00    0.00       0.34   -2.28   -0.28
#  54    0.61   -0.71    1.18   -0.53   -0.09    0.00    0.00       0.46   -1.61   -0.28

@<TRIPOS>MOLECULE
      GL5243106_0       100
   54    56     0     0     0



@<TRIPOS>ATOM
      1 C1         16.5206   -15.4093    12.0303 C.3        1          -0.1411
      2 C2         16.0572   -14.6823    10.7664 C.3        1          -0.1162
      3 C3         16.9614   -13.4744    10.5123 C.3        1          -0.1539
      4 C4         16.1330   -15.6362     9.5726 C.3        1          -0.1033
      5 C5         15.2290   -16.8440     9.8267 C.3        1          -0.1218
      6 C6         13.7857   -16.3709    10.0106 C.3        1           0.1304
      7 N1         13.3418   -15.6747     8.8003 N.am       1          -0.7176
      8 C7         12.9515   -14.3865     8.8686 C.2        1           0.5596
      9 O1         12.9676   -13.8022     9.9349 O.2        1          -0.5492
     10 C8         12.5045   -13.6857     7.6500 C.ar       1          -0.1898
     11 C9         12.9804   -14.0854     6.3977 C.ar       1          -0.0338
     12 C10        12.5612   -13.4298     5.2629 C.ar       1          -0.2073
     13 C11        11.6642   -12.3688     5.3611 C.ar       1           0.2363
     14 N2         11.2423   -11.7095     4.2118 N.pl3      1          -0.8721
     15 C12        11.1886   -11.9691     6.6062 C.ar       1          -0.2100
     16 C13        11.5998   -12.6241     7.7445 C.ar       1          -0.0097
     17 C14        15.3047   -17.7980     8.6328 C.3        1          -0.0650
     18 C15        16.5563   -18.6312     8.7343 C.ar       1          -0.0504
     19 C16        17.7285   -18.1857     8.1652 C.ar       1          -0.1149
     20 C17        18.8837   -18.9454     8.2543 C.ar       1          -0.1169
     21 C18        18.8736   -20.1614     8.9162 C.ar       1           0.0147
     22 O2         19.8601   -21.0790     9.1379 O.3        1          -0.3172
     23 C19        19.3751   -21.9122    10.2075 C.3        1           0.2109
     24 O3         17.9431   -21.8311    10.0813 O.3        1          -0.2991
     25 C20        17.6964   -20.6263     9.4972 C.ar       1           0.0475
     26 C21        16.5293   -19.8554     9.4118 C.ar       1          -0.0865
     27 C22        15.2804   -20.3333    10.0266 C.2        1           0.5361
     28 O4         15.0166   -20.0385    11.1843 O.co2      1          -0.6782
     29 O5         14.5062   -21.0255     9.3802 O.co2      1          -0.6725
     30 H1         15.8765   -16.2698    12.2113 H          1           0.0478
     31 H2         17.5489   -15.7464    11.8993 H          1           0.0487
     32 H3         16.4666   -14.7298    12.8808 H          1           0.0465
     33 H4         15.0290   -14.3452    10.8974 H          1           0.0933
     34 H5         16.6312   -12.9565     9.6119 H          1           0.0421
     35 H6         16.9073   -12.7948    11.3628 H          1           0.0805
     36 H7         17.9896   -13.8113    10.3812 H          1           0.0433
     37 H8         15.8030   -15.1182     8.6721 H          1           0.0546
     38 H9         17.1614   -15.9732     9.4416 H          1           0.0586
     39 H10        15.5590   -17.3620    10.7270 H          1           0.1271
     40 H11        13.1415   -17.2313    10.1917 H          1           0.0598
     41 H12        13.7317   -15.6912    10.8611 H          1           0.0740
     42 H13        13.3290   -16.1410     7.9499 H          1           0.3981
     43 H14        13.6764   -14.9076     6.3212 H          1           0.1255
     44 H15        12.9285   -13.7379     4.2951 H          1           0.1245
     45 H16        11.5728   -11.9878     3.3434 H          1           0.3990
     46 H17        10.6173   -10.9706     4.2790 H          1           0.3990
     47 H18        10.4928   -11.1463     6.6790 H          1           0.1245
     48 H19        11.2272   -12.3158     8.7102 H          1           0.1348
     49 H20        14.4322   -18.4513     8.6338 H          1           0.0835
     50 H21        15.3260   -17.2216     7.7078 H          1           0.0698
     51 H22        17.7474   -17.2389     7.6462 H          1           0.1304
     52 H23        19.7977   -18.5869     7.8042 H          1           0.1253
     53 H24        19.7136   -22.9400    10.0761 H          1           0.1239
     54 H25        19.6972   -21.5223    11.1731 H          1           0.0765
@<TRIPOS>BOND
     1    1    2 1
     2    1   30 1
     3    1   31 1
     4    1   32 1
     5    2    3 1
     6    2    4 1
     7    2   33 1
     8    3   34 1
     9    3   35 1
    10    3   36 1
    11    4    5 1
    12    4   37 1
    13    4   38 1
    14    5    6 1
    15    5   17 1
    16    5   39 1
    17    6    7 1
    18    6   40 1
    19    6   41 1
    20    7    8 am
    21    7   42 1
    22    8    9 2
    23    8   10 1
    24   10   16 ar
    25   10   11 ar
    26   11   12 ar
    27   11   43 1
    28   12   13 ar
    29   12   44 1
    30   13   14 1
    31   13   15 ar
    32   14   45 1
    33   14   46 1
    34   15   16 ar
    35   15   47 1
    36   16   48 1
    37   17   18 1
    38   17   49 1
    39   17   50 1
    40   18   26 ar
    41   18   19 ar
    42   19   20 ar
    43   19   51 1
    44   20   21 ar
    45   20   52 1
    46   21   25 ar
    47   21   22 1
    48   22   23 1
    49   23   24 1
    50   23   53 1
    51   23   54 1
    52   24   25 1
    53   25   26 ar
    54   26   27 1
    55   27   28 1
    56   27   29 2
