AVX17556_3, 3
##########                 Name:           AVX17556_0
##########          Protonation:                  100
##########               SMILES:   c1ccc2c(c1)C[C@H]([C@@H]2Cc3ccc4c(c3C(=O)[O-])OCO4)NC(=O)CCCC[NH3+]
##########            Long Name:   (5-azaniumylpentanoylamino)indan-1-yl]methyl]-1,3-benzodioxole-4-carboxylate
##########          FlexRecCode: 1
##########               Number:                  181
##########   Ligand Source File: /raid1/people/rgc/Examples/sampl4/screening/ligands/build_1//sampl4-hivint-00000
##########           GlobalRank: 68
##########                 Rank:                    1
##########               Setnum:                   17
##########             Matchnum:                22180
##########                Cloud:                    1
##########        Electrostatic:           -43.240074
##########        Van der Waals:           -18.030865
##########  Ligand Polar Desolv:            23.077188
########## Ligand Apolar Desolv:            -2.493006
##########      Internal Energy:             0.000000
##########      Receptor Energy: 0.0
########## Receptor Desolvation:             0.000000
########## Receptor Hydrophobic:             0.000000
##########         Total Energy: -40.69
##########        Ligand Charge:             0.000000
##########            Arbitrary:    +999.9990
##########     heavy atom count:   30
##########           pose count:    1
##########        Ligand Energy:             0.000000
# num electro vdwattr vdwrepu polsolv apolsol rdesolv rhydroe totalscore fullpol fullapo
#   1   -4.50   -0.50    0.26   -2.59    0.11    0.00    0.00      -7.21  -19.75    0.86
#   2    7.52   -0.02    0.00    2.02    0.08    0.00    0.00       9.60   15.20    0.58
#   3    1.55   -0.01    0.00    1.86    0.07    0.00    0.00       3.47   15.43    0.58
#   4    2.23    0.00    0.00    0.97    0.04    0.00    0.00       3.23   16.17    0.60
#   5   -0.05   -0.17    0.01    0.07   -0.05    0.00    0.00      -0.19    0.68   -0.49
#   6   -0.97   -0.19    0.02   -0.32   -0.03    0.00    0.00      -1.49   -2.95   -0.24
#   7   -0.36   -0.22    0.02   -0.14   -0.02    0.00    0.00      -0.73   -1.13   -0.19
#   8   -0.43   -0.29    0.05   -0.11   -0.03    0.00    0.00      -0.82   -0.85   -0.24
#   9    3.26   -0.75    0.28   -0.06   -0.11    0.00    0.00       2.63   -0.34   -0.66
#  10   -4.68   -1.55    1.60    0.41    0.08    0.00    0.00      -4.14    1.84    0.37
#  11   -4.47   -0.38    0.04    0.41    0.26    0.00    0.00      -4.15    3.14    1.96
#  12    1.36   -0.33    0.03   -0.22   -0.04    0.00    0.00       0.81   -1.22   -0.23
#  13   -0.44   -0.42    0.04    0.07   -0.06    0.00    0.00      -0.80    0.36   -0.27
#  14   -0.54   -0.67    0.05    0.18   -0.09    0.00    0.00      -1.07    0.87   -0.43
#  15   -0.13   -0.87    0.16    0.12   -0.10    0.00    0.00      -0.81    0.57   -0.47
#  16   -0.19   -0.97    0.28    0.15   -0.10    0.00    0.00      -0.84    0.66   -0.47
#  17   -0.26   -1.10    0.17    0.34   -0.13    0.00    0.00      -0.98    1.29   -0.47
#  18   -0.98   -1.05    0.13    0.58   -0.13    0.00    0.00      -1.45    2.01   -0.45
#  19   -0.76   -0.68    0.04    0.38   -0.10    0.00    0.00      -1.12    1.53   -0.39
#  20   -0.56   -0.37    0.02    0.06   -0.03    0.00    0.00      -0.89    0.27   -0.13
#  21   -1.56   -1.07    0.54    0.30   -0.06    0.00    0.00      -1.84    0.92   -0.17
#  22   -0.74   -1.07    0.18    0.09   -0.10    0.00    0.00      -1.64    0.28   -0.31
#  23   -2.19   -1.11    0.13    0.25   -0.17    0.00    0.00      -3.09    0.66   -0.45
#  24   -1.52   -1.97    0.65    0.03   -0.20    0.00    0.00      -3.01    0.06   -0.47
#  25   -0.17   -1.90    0.62   -0.09   -0.14    0.00    0.00      -1.68   -0.21   -0.33
#  26   -5.51   -3.40    3.24    0.62    0.24    0.00    0.00      -4.81    1.32    0.52
#  27    5.30   -1.76    0.72   -0.45    0.01    0.00    0.00       3.83   -0.86    0.02
#  28  -10.37   -2.25    2.69    2.26    0.13    0.00    0.00      -7.53    5.74    0.34
#  29    2.43   -1.47    0.50   -0.20   -0.12    0.00    0.00       1.13   -0.51   -0.32
#  30   -4.21   -1.24    0.20    1.43   -0.16    0.00    0.00      -3.98    3.73   -0.41
#  31   23.63   -1.79    0.43   -5.88   -0.07    0.00    0.00      16.32  -13.75   -0.16
#  32  -34.91   -2.96    5.41    8.27   -0.11    0.00    0.00     -24.31   21.03   -0.29
#  33  -33.98   -3.18    1.29   13.25   -0.29    0.00    0.00     -22.91   25.37   -0.56
#  34    0.35   -0.02    0.00    0.08   -0.01    0.00    0.00       0.40    3.51   -0.28
#  35    0.76   -0.07    0.00    0.22   -0.02    0.00    0.00       0.89    3.23   -0.28
#  36    1.04   -0.07    0.01    0.15   -0.02    0.00    0.00       1.10    1.95   -0.28
#  37    0.33   -0.05    0.01    0.14   -0.02    0.00    0.00       0.41    2.35   -0.28
#  38    0.11   -0.03    0.00    0.02   -0.01    0.00    0.00       0.09    0.60   -0.28
#  39    0.34   -0.13    0.01    0.06   -0.04    0.00    0.00       0.25    0.45   -0.28
#  40    0.22   -0.03    0.00    0.02   -0.01    0.00    0.00       0.20    0.54   -0.28
#  41    0.09   -0.17    0.08    0.14   -0.04    0.00    0.00       0.10    1.03   -0.28
#  42    1.66    0.00    0.00   -0.09    0.02    0.00    0.00       1.59   -2.30    0.57
#  43    1.01   -0.17    0.06   -0.09   -0.03    0.00    0.00       0.77   -0.65   -0.25
#  44    0.22   -0.07    0.00   -0.03   -0.02    0.00    0.00       0.10   -0.41   -0.28
#  45    0.30   -0.31    0.18   -0.06   -0.05    0.00    0.00       0.05   -0.33   -0.28
#  46    0.11   -0.14    0.02   -0.04   -0.04    0.00    0.00      -0.09   -0.27   -0.28
#  47    0.15   -0.16    0.04   -0.04   -0.03    0.00    0.00      -0.05   -0.35   -0.28
#  48    0.27   -0.30    0.09   -0.25   -0.06    0.00    0.00      -0.27   -1.09   -0.28
#  49    2.72   -0.30    0.08   -0.35   -0.07    0.00    0.00       2.08   -1.41   -0.27
#  50    2.21   -0.09    0.01   -0.05   -0.02    0.00    0.00       2.05   -0.59   -0.22
#  51    3.66   -0.77    1.16   -0.25   -0.06    0.00    0.00       3.74   -0.78   -0.20
#  52    0.97   -0.40    0.20   -0.30   -0.08    0.00    0.00       0.38   -1.02   -0.27
#  53    1.60   -0.23    0.05   -0.16   -0.07    0.00    0.00       1.20   -0.67   -0.28
#  54    0.97   -0.77    0.60    0.08   -0.12    0.00    0.00       0.77    0.19   -0.28
#  55    3.65   -0.80    0.66   -0.14   -0.16    0.00    0.00       3.22   -0.24   -0.28
#  56    1.23   -0.60    0.33   -0.05   -0.13    0.00    0.00       0.79   -0.10   -0.28

@<TRIPOS>MOLECULE
       AVX17556_0       100
   56    59     0     0     0



@<TRIPOS>ATOM
      1 N1         14.6052   -21.4476    15.3762 N.4        1          -0.6382
      2 H1         14.7069   -21.7815    14.4295 H          1           0.4353
      3 H2         13.8712   -20.7562    15.4119 H          1           0.4343
      4 H3         14.3698   -22.2197    15.9816 H          1           0.4367
      5 C1         15.8685   -20.8441    15.8210 C.3        1          -0.0090
      6 C2         16.2255   -19.6734    14.9030 C.3        1          -0.1538
      7 C3         17.5412   -19.0447    15.3662 C.3        1          -0.0999
      8 C4         17.8981   -17.8741    14.4482 C.3        1          -0.1454
      9 C5         18.0501   -18.3725    13.0341 C.2        1           0.5168
     10 O1         18.4291   -19.5061    12.8282 O.2        1          -0.5466
     11 N2         17.7649   -17.5587    11.9984 N.am       1          -0.7076
     12 C6         17.9127   -18.0434    10.6237 C.3        1           0.1458
     13 C7         18.1662   -16.8846     9.6534 C.3        1          -0.0867
     14 C8         16.7912   -16.3787     9.2952 C.ar       1          -0.1071
     15 C9         16.3722   -15.1585     8.7931 C.ar       1          -0.1118
     16 C10        15.0323   -14.9344     8.5435 C.ar       1          -0.1261
     17 C11        14.1071   -15.9305     8.7951 C.ar       1          -0.1215
     18 C12        14.5240   -17.1485     9.2958 C.ar       1          -0.0882
     19 C13        15.8667   -17.3741     9.5468 C.ar       1          -0.0658
     20 C14        16.5855   -18.5867    10.0835 C.3        1          -0.0341
     21 C15        16.8393   -19.5960     8.9621 C.3        1          -0.0671
     22 C16        17.1496   -20.9439     9.5602 C.ar       1          -0.0292
     23 C17        18.4513   -21.2836     9.8547 C.ar       1          -0.1276
     24 C18        18.7460   -22.5210    10.4049 C.ar       1          -0.1027
     25 C19        17.7353   -23.4288    10.6649 C.ar       1          -0.0081
     26 O2         17.7445   -24.6865    11.1901 O.3        1          -0.3208
     27 C20        16.5031   -25.2967    10.8064 C.3        1           0.2059
     28 O3         15.6336   -24.1578    10.7227 O.3        1          -0.2754
     29 C21        16.4129   -23.1005    10.3732 C.ar       1           0.0746
     30 C22        16.1140   -21.8488     9.8218 C.ar       1          -0.1204
     31 C23        14.7205   -21.4885     9.5145 C.2        1           0.5183
     32 O4         14.0318   -20.9327    10.3591 O.co2      1          -0.6674
     33 O5         14.2508   -21.7452     8.4144 O.co2      1          -0.6711
     34 H4         15.7587   -20.4834    16.8438 H          1           0.1345
     35 H5         16.6614   -21.5910    15.7823 H          1           0.1352
     36 H6         16.3353   -20.0340    13.8802 H          1           0.0891
     37 H7         15.4325   -18.9264    14.9417 H          1           0.0878
     38 H8         17.4313   -18.6841    16.3888 H          1           0.0812
     39 H9         18.3341   -19.7917    15.3274 H          1           0.0831
     40 H10        17.1052   -17.1271    14.4868 H          1           0.0958
     41 H11        18.8355   -17.4262    14.7782 H          1           0.0940
     42 H12        17.4618   -16.6521    12.1630 H          1           0.4031
     43 H13        18.7010   -18.7932    10.5564 H          1           0.1027
     44 H14        18.7445   -16.1000    10.1415 H          1           0.0779
     45 H15        18.6838   -17.2411     8.7629 H          1           0.0740
     46 H16        17.0946   -14.3801     8.5965 H          1           0.1136
     47 H17        14.7075   -13.9815     8.1524 H          1           0.1190
     48 H18        13.0591   -15.7563     8.6008 H          1           0.1216
     49 H19        13.8010   -17.9262     9.4926 H          1           0.1311
     50 H20        16.0084   -19.0461    10.8860 H          1           0.1081
     51 H21        15.9515   -19.6725     8.3343 H          1           0.1216
     52 H22        17.6837   -19.2633     8.3581 H          1           0.0527
     53 H23        19.2474   -20.5815     9.6554 H          1           0.1256
     54 H24        19.7703   -22.7779    10.6316 H          1           0.1199
     55 H25        16.5936   -25.7906     9.8389 H          1           0.1230
     56 H26        16.1592   -25.9951    11.5694 H          1           0.0696
@<TRIPOS>BOND
     1    1    2 1
     2    1    3 1
     3    1    4 1
     4    1    5 1
     5    5    6 1
     6    5   34 1
     7    5   35 1
     8    6    7 1
     9    6   36 1
    10    6   37 1
    11    7    8 1
    12    7   38 1
    13    7   39 1
    14    8    9 1
    15    8   40 1
    16    8   41 1
    17    9   10 2
    18    9   11 am
    19   11   12 1
    20   11   42 1
    21   12   20 1
    22   12   13 1
    23   12   43 1
    24   13   14 1
    25   13   44 1
    26   13   45 1
    27   14   19 ar
    28   14   15 ar
    29   15   16 ar
    30   15   46 1
    31   16   17 ar
    32   16   47 1
    33   17   18 ar
    34   17   48 1
    35   18   19 ar
    36   18   49 1
    37   19   20 1
    38   20   21 1
    39   20   50 1
    40   21   22 1
    41   21   51 1
    42   21   52 1
    43   22   30 ar
    44   22   23 ar
    45   23   24 ar
    46   23   53 1
    47   24   25 ar
    48   24   54 1
    49   25   29 ar
    50   25   26 1
    51   26   27 1
    52   27   28 1
    53   27   55 1
    54   27   56 1
    55   28   29 1
    56   29   30 ar
    57   30   31 1
    58   31   32 1
    59   31   33 2
