GL5243104_0, 3
##########                 Name:          GL5243104_0
##########          Protonation:                  100
##########               SMILES:   CC(C)C[C@H](Cc1ccc2c(c1C(=O)[O-])OCO2)CNC(=O)c3ccncc3
##########            Long Name:   l-2-[(pyridine-4-carbonylamino)methyl]pentyl]-1,3-benzodioxole-4-carboxylate
##########          FlexRecCode: 1
##########               Number:                  399
##########   Ligand Source File: /raid1/people/rgc/Examples/sampl4/screening/ligands/build_1//sampl4-hivint-00000
##########           GlobalRank: 85
##########                 Rank:                    1
##########               Setnum:                   12
##########             Matchnum:                16503
##########                Cloud:                    1
##########        Electrostatic:           -40.321739
##########        Van der Waals:           -17.812401
##########  Ligand Polar Desolv:            21.690588
########## Ligand Apolar Desolv:            -1.784490
##########      Internal Energy:             0.000000
##########      Receptor Energy: 0.0
########## Receptor Desolvation:             0.000000
########## Receptor Hydrophobic:             0.000000
##########         Total Energy: -38.23
##########        Ligand Charge:            -1.000000
##########            Arbitrary:    +999.9990
##########     heavy atom count:   28
##########           pose count:    1
##########        Ligand Energy:             0.000000
# num electro vdwattr vdwrepu polsolv apolsol rdesolv rhydroe totalscore fullpol fullapo
#   1   -0.14   -0.17    0.01    0.19   -0.02    0.00    0.00      -0.12    1.96   -0.17
#   2   -0.11   -0.16    0.00    0.10   -0.01    0.00    0.00      -0.18    1.07   -0.14
#   3   -0.12   -0.14    0.01    0.07   -0.02    0.00    0.00      -0.20    0.80   -0.18
#   4   -0.14   -0.48    0.05    0.21   -0.03    0.00    0.00      -0.39    1.04   -0.17
#   5   -0.68   -0.36    0.02    0.29   -0.02    0.00    0.00      -0.75    1.54   -0.12
#   6    0.88   -0.16    0.00   -0.22   -0.03    0.00    0.00       0.46   -2.31   -0.37
#   7   -5.20   -0.33    0.01    1.37    0.19    0.00    0.00      -3.96   10.83    1.51
#   8    1.02   -0.20    0.01   -0.66   -0.05    0.00    0.00       0.12   -8.59   -0.66
#   9   -0.77   -0.08    0.00    0.40    0.01    0.00    0.00      -0.43   11.31    0.40
#  10   -0.16   -0.31    0.01    0.21   -0.06    0.00    0.00      -0.30    1.50   -0.41
#  11   -0.65   -0.93    0.14    0.36   -0.12    0.00    0.00      -1.20    1.36   -0.45
#  12    0.22   -1.74    0.84   -0.25   -0.30    0.00    0.00      -1.23   -0.80   -0.98
#  13   -0.81   -0.97    0.35    0.96    0.44    0.00    0.00      -0.03    4.45    2.05
#  14    0.13   -0.27    0.01   -0.09   -0.10    0.00    0.00      -0.31   -0.84   -0.98
#  15   -0.17   -0.17    0.00    0.08   -0.03    0.00    0.00      -0.29    1.32   -0.45
#  16   -0.88   -0.96    0.20    0.40   -0.06    0.00    0.00      -1.30    1.29   -0.18
#  17   -1.01   -1.27    0.35    0.37   -0.10    0.00    0.00      -1.65    1.19   -0.32
#  18   -1.43   -1.19    0.17    0.24   -0.14    0.00    0.00      -2.35    0.68   -0.39
#  19   -1.46   -1.35    0.33    0.24   -0.18    0.00    0.00      -2.42    0.64   -0.47
#  20    0.26   -1.29    0.18   -0.13   -0.13    0.00    0.00      -1.12   -0.32   -0.33
#  21   -4.20   -2.40    1.32    2.25    0.25    0.00    0.00      -2.78    4.70    0.52
#  22    3.79   -1.51    0.73   -1.32    0.01    0.00    0.00       1.70   -2.97    0.02
#  23   -8.46   -0.96    0.09    3.80    0.19    0.00    0.00      -5.33    9.60    0.48
#  24    1.14   -1.01    0.10    0.22   -0.12    0.00    0.00       0.33    0.60   -0.33
#  25   -2.27   -1.15    0.31    1.60   -0.12    0.00    0.00      -1.63    5.17   -0.40
#  26   19.33   -1.33    0.23   -6.99   -0.05    0.00    0.00      11.20  -18.98   -0.13
#  27  -27.21   -1.87    2.51    9.59   -0.12    0.00    0.00     -17.10   32.26   -0.42
#  28  -29.67   -2.59    0.98   13.35   -0.18    0.00    0.00     -18.11   28.39   -0.39
#  29    0.09   -0.05    0.00   -0.02   -0.01    0.00    0.00       0.01   -0.52   -0.28
#  30    0.04   -0.09    0.01   -0.09   -0.03    0.00    0.00      -0.16   -0.95   -0.28
#  31    0.05   -0.02    0.00    0.00    0.00    0.00    0.00       0.02   -0.04   -0.19
#  32    0.08   -0.02    0.00   -0.02    0.00    0.00    0.00       0.03   -0.81   -0.18
#  33    0.05   -0.04    0.00   -0.01   -0.01    0.00    0.00      -0.01   -0.36   -0.28
#  34    0.04   -0.02    0.00   -0.01    0.00    0.00    0.00       0.01   -0.42   -0.28
#  35    0.04   -0.08    0.00   -0.03   -0.02    0.00    0.00      -0.09   -0.43   -0.28
#  36    0.09   -0.13    0.01   -0.12   -0.03    0.00    0.00      -0.18   -0.97   -0.28
#  37    0.07   -0.40    0.16   -0.18   -0.05    0.00    0.00      -0.40   -0.74   -0.22
#  38    0.55   -0.10    0.01   -0.06   -0.02    0.00    0.00       0.38   -0.62   -0.17
#  39    0.73   -0.05    0.00   -0.08   -0.01    0.00    0.00       0.59   -1.59   -0.28
#  40    0.27   -0.03    0.00    0.00   -0.01    0.00    0.00       0.23   -0.17   -0.28
#  41    5.38   -0.01    0.00   -0.63    0.02    0.00    0.00       4.77   -5.88    0.19
#  42    2.13   -0.30    0.11   -0.37   -0.06    0.00    0.00       1.51   -1.33   -0.22
#  43    0.71   -0.96    1.48   -0.42   -0.12    0.00    0.00       0.70   -1.00   -0.28
#  44    0.19   -0.03    0.00   -0.02   -0.01    0.00    0.00       0.13   -0.98   -0.28
#  45    0.18   -0.01    0.00   -0.03    0.00    0.00    0.00       0.14   -1.55   -0.27
#  46    1.49   -0.26    0.04    0.07   -0.06    0.00    0.00       1.28    0.31   -0.25
#  47    0.88   -0.72    0.36   -0.81   -0.11    0.00    0.00      -0.39   -2.13   -0.28
#  48    0.94   -0.28    0.07   -0.42   -0.07    0.00    0.00       0.23   -1.63   -0.28
#  49    1.10   -0.29    0.08   -0.44   -0.07    0.00    0.00       0.37   -1.67   -0.28
#  50    2.34   -0.93    1.29   -0.84   -0.11    0.00    0.00       1.75   -2.16   -0.28
#  51    1.02   -0.35    0.08   -0.45   -0.08    0.00    0.00       0.22   -1.56   -0.28

@<TRIPOS>MOLECULE
      GL5243104_0       100
   51    53     0     0     0



@<TRIPOS>ATOM
      1 C1         18.6748   -14.3360    10.0716 C.3        1          -0.1625
      2 C2         17.1552   -14.2506     9.9164 C.3        1          -0.1183
      3 C3         16.7805   -12.9020     9.2987 C.3        1          -0.1429
      4 C4         16.6712   -15.3809     9.0057 C.3        1          -0.1106
      5 C5         17.0459   -16.7296     9.6235 C.3        1          -0.1073
      6 C6         16.3847   -16.8627    10.9969 C.3        1           0.1253
      7 N1         14.9295   -16.7809    10.8483 N.am       1          -0.7122
      8 C7         14.2418   -15.8058    11.4750 C.2        1           0.5498
      9 O1         14.8287   -14.9944    12.1632 O.2        1          -0.5325
     10 C8         12.7702   -15.7232    11.3247 C.ar       1          -0.0829
     11 C9         12.0109   -16.8645    11.0495 C.ar       1          -0.1427
     12 C10        10.6412   -16.7420    10.9176 C.ar       1           0.0976
     13 N2         10.0509   -15.5707    11.0476 N.ar       1          -0.4720
     14 C11        10.7290   -14.4705    11.3070 C.ar       1           0.0940
     15 C12        12.1017   -14.5028    11.4600 C.ar       1          -0.1166
     16 C13        16.5620   -17.8597     8.7128 C.3        1          -0.0641
     17 C14        17.3233   -19.1210     9.0298 C.ar       1          -0.0558
     18 C15        18.6942   -19.1487     8.9022 C.ar       1          -0.1145
     19 C16        19.4018   -20.3041     9.1920 C.ar       1          -0.1168
     20 C17        18.7394   -21.4446     9.6131 C.ar       1           0.0161
     21 O2         19.1993   -22.6843     9.9537 O.3        1          -0.3171
     22 C18        18.1255   -23.3034    10.6866 C.3        1           0.2108
     23 O3         16.9447   -22.6612    10.1704 O.3        1          -0.2989
     24 C19        17.3533   -21.4333     9.7473 C.ar       1           0.0462
     25 C20        16.6380   -20.2631     9.4594 C.ar       1          -0.0855
     26 C21        15.1735   -20.2370     9.6027 C.2        1           0.5348
     27 O4         14.6690   -19.9101    10.6681 O.co2      1          -0.6786
     28 O5         14.4609   -20.5421     8.6564 O.co2      1          -0.6771
     29 H1         18.9418   -15.2967    10.5118 H          1           0.0616
     30 H2         19.1460   -14.2411     9.0932 H          1           0.0510
     31 H3         19.0197   -13.5308    10.7204 H          1           0.0667
     32 H4         16.6842   -14.3454    10.8949 H          1           0.0797
     33 H5         15.6978   -12.8413     9.1881 H          1           0.0538
     34 H6         17.1252   -12.0968     9.9474 H          1           0.0507
     35 H7         17.2515   -12.8072     8.3202 H          1           0.0502
     36 H8         15.5887   -15.3200     8.8951 H          1           0.0601
     37 H9         17.1425   -15.2860     8.0273 H          1           0.0729
     38 H10        18.1285   -16.7903     9.7342 H          1           0.1105
     39 H11        16.6515   -17.8235    11.4369 H          1           0.0726
     40 H12        16.7294   -16.0575    11.6457 H          1           0.0725
     41 H13        14.4610   -17.4286    10.2988 H          1           0.4065
     42 H14        12.4881   -17.8273    10.9410 H          1           0.1389
     43 H15        10.0461   -17.6178    10.7051 H          1           0.1627
     44 H16        10.2040   -13.5318    11.4049 H          1           0.1627
     45 H17        12.6504   -13.5983    11.6771 H          1           0.1483
     46 H18        15.4974   -18.0270     8.8760 H          1           0.0840
     47 H19        16.7313   -17.5850     7.6717 H          1           0.0715
     48 H20        19.2209   -18.2648     8.5741 H          1           0.1305
     49 H21        20.4768   -20.3152     9.0884 H          1           0.1256
     50 H22        18.0957   -24.3752    10.4900 H          1           0.1245
     51 H23        18.2300   -23.1117    11.7545 H          1           0.0768
@<TRIPOS>BOND
     1    1    2 1
     2    1   29 1
     3    1   30 1
     4    1   31 1
     5    2    3 1
     6    2    4 1
     7    2   32 1
     8    3   33 1
     9    3   34 1
    10    3   35 1
    11    4    5 1
    12    4   36 1
    13    4   37 1
    14    5    6 1
    15    5   16 1
    16    5   38 1
    17    6    7 1
    18    6   39 1
    19    6   40 1
    20    7    8 am
    21    7   41 1
    22    8    9 2
    23    8   10 1
    24   10   15 ar
    25   10   11 ar
    26   11   12 ar
    27   11   42 1
    28   12   13 ar
    29   12   43 1
    30   13   14 ar
    31   14   15 ar
    32   14   44 1
    33   15   45 1
    34   16   17 1
    35   16   46 1
    36   16   47 1
    37   17   25 ar
    38   17   18 ar
    39   18   19 ar
    40   18   48 1
    41   19   20 ar
    42   19   49 1
    43   20   24 ar
    44   20   21 1
    45   21   22 1
    46   22   23 1
    47   22   50 1
    48   22   51 1
    49   23   24 1
    50   24   25 ar
    51   25   26 1
    52   26   27 1
    53   26   28 2
