GL5243100_0, 3
##########                 Name:          GL5243100_0
##########          Protonation:                  100
##########               SMILES:   CC(C)C[C@H](Cc1ccc2c(c1C(=O)[O-])OCO2)CNC(=O)Cc3cc[nH]c3
##########            Long Name:   2-(1H-pyrrol-3-yl)acetyl]amino]methyl]pentyl]-1,3-benzodioxole-4-carboxylate
##########          FlexRecCode: 1
##########               Number:                  518
##########   Ligand Source File: /raid1/people/rgc/Examples/sampl4/screening/ligands/build_1//sampl4-hivint-00000
##########           GlobalRank: 83
##########                 Rank:                    1
##########               Setnum:                  108
##########             Matchnum:                 2530
##########                Cloud:                    1
##########        Electrostatic:           -48.053249
##########        Van der Waals:           -12.168752
##########  Ligand Polar Desolv:            23.673599
########## Ligand Apolar Desolv:            -1.947824
##########      Internal Energy:             0.000000
##########      Receptor Energy: 0.0
########## Receptor Desolvation:             0.000000
########## Receptor Hydrophobic:             0.000000
##########         Total Energy: -38.5
##########        Ligand Charge:            -1.000000
##########            Arbitrary:    +999.9990
##########     heavy atom count:   28
##########           pose count:    1
##########        Ligand Energy:             0.000000
# num electro vdwattr vdwrepu polsolv apolsol rdesolv rhydroe totalscore fullpol fullapo
#   1   -0.17   -0.16    0.00    0.07   -0.02    0.00    0.00      -0.27    0.84   -0.18
#   2   -0.19   -0.22    0.01    0.18   -0.02    0.00    0.00      -0.24    1.37   -0.18
#   3   -0.22   -0.22    0.01    0.32   -0.02    0.00    0.00      -0.14    2.46   -0.18
#   4   -0.24   -0.75    0.12    0.24   -0.05    0.00    0.00      -0.67    0.90   -0.18
#   5   -1.29   -0.51    0.04    0.54   -0.03    0.00    0.00      -1.25    2.07   -0.12
#   6    1.52   -0.35    0.05   -0.49   -0.07    0.00    0.00       0.66   -2.86   -0.38
#   7  -11.19   -0.51    0.12    1.78    0.32    0.00    0.00      -9.47   11.78    2.14
#   8    4.52   -0.28    0.01   -1.03   -0.08    0.00    0.00       3.15   -8.62   -0.66
#   9   -2.50   -0.15    0.00    1.05    0.03    0.00    0.00      -1.57   13.90    0.38
#  10   -0.61   -0.42    0.11    0.10   -0.05    0.00    0.00      -0.86    0.59   -0.27
#  11   -1.42   -0.45    0.04    0.47   -0.05    0.00    0.00      -1.41    2.83   -0.33
#  12   -0.04   -0.71    0.09    0.00   -0.23    0.00    0.00      -0.89    0.01   -1.01
#  13   -4.10   -0.44    0.03    0.70    0.20    0.00    0.00      -3.61    4.20    1.19
#  14   -0.19   -0.42    0.11    0.01   -0.12    0.00    0.00      -0.61    0.08   -1.01
#  15   -1.86   -0.58    0.32    0.49   -0.07    0.00    0.00      -1.69    3.84   -0.51
#  16   -1.51   -1.60    0.68    0.51   -0.07    0.00    0.00      -1.98    1.38   -0.18
#  17   -1.14   -1.86    0.99    0.34   -0.08    0.00    0.00      -1.75    1.02   -0.23
#  18   -1.67   -1.81    0.66    0.23   -0.12    0.00    0.00      -2.70    0.69   -0.36
#  19   -1.48   -1.36    0.25    0.26   -0.17    0.00    0.00      -2.51    0.72   -0.47
#  20    0.22   -1.19    0.19   -0.11   -0.12    0.00    0.00      -1.01   -0.31   -0.33
#  21   -3.63   -1.37    0.30    2.06    0.22    0.00    0.00      -2.43    4.87    0.52
#  22    2.60   -1.39    0.45   -1.34    0.01    0.00    0.00       0.33   -3.12    0.02
#  23   -6.58   -0.97    0.07    4.21    0.21    0.00    0.00      -3.06    9.84    0.48
#  24    1.13   -1.08    0.16    0.22   -0.12    0.00    0.00       0.32    0.63   -0.33
#  25   -2.59   -1.33    0.43    1.61   -0.13    0.00    0.00      -2.02    4.80   -0.40
#  26   22.38   -1.44    0.28   -7.64   -0.05    0.00    0.00      13.54  -19.27   -0.12
#  27  -32.81   -2.83    7.30   11.09   -0.14    0.00    0.00     -17.39   32.90   -0.42
#  28  -33.19   -2.40    0.78   13.83   -0.18    0.00    0.00     -21.16   28.43   -0.36
#  29    0.06   -0.04    0.00   -0.01   -0.01    0.00    0.00       0.00   -0.36   -0.28
#  30    0.06   -0.10    0.01   -0.05   -0.02    0.00    0.00      -0.10   -0.56   -0.28
#  31    0.05   -0.02    0.00   -0.01   -0.01    0.00    0.00       0.01   -0.50   -0.28
#  32    0.15   -0.04    0.00   -0.02    0.00    0.00    0.00       0.09   -0.74   -0.11
#  33    0.13   -0.09    0.01    0.03   -0.02    0.00    0.00       0.06    0.36   -0.19
#  34    0.05   -0.02    0.00   -0.01   -0.01    0.00    0.00       0.00   -0.57   -0.28
#  35    0.06   -0.09    0.01   -0.12   -0.03    0.00    0.00      -0.18   -1.19   -0.28
#  36    0.40   -0.43    0.19   -0.22   -0.05    0.00    0.00      -0.11   -0.93   -0.22
#  37    0.14   -0.37    0.08   -0.31   -0.08    0.00    0.00      -0.54   -1.06   -0.26
#  38    0.87   -0.10    0.00   -0.09   -0.01    0.00    0.00       0.67   -0.91   -0.11
#  39    0.23   -0.04    0.00   -0.08   -0.01    0.00    0.00       0.10   -1.64   -0.28
#  40    1.21   -0.23    0.11    0.14   -0.05    0.00    0.00       1.18    0.74   -0.28
#  41    9.89   -0.01    0.00   -0.69    0.06    0.00    0.00       9.24   -5.80    0.49
#  42    1.10   -0.18    0.09   -0.17   -0.04    0.00    0.00       0.79   -1.27   -0.28
#  43    0.49   -0.22    0.11   -0.20   -0.04    0.00    0.00       0.12   -1.27   -0.28
#  44    1.02   -0.33    0.09   -0.37   -0.08    0.00    0.00       0.34   -1.35   -0.28
#  45    2.17   -0.01    0.00   -0.17    0.06    0.00    0.00       2.06   -1.65    0.59
#  46    0.88   -0.08    0.02   -0.12   -0.02    0.00    0.00       0.68   -1.43   -0.28
#  47    0.92   -0.23    0.28   -0.20   -0.03    0.00    0.00       0.73   -1.72   -0.28
#  48    2.82   -0.54    0.34    0.05   -0.08    0.00    0.00       2.59    0.16   -0.26
#  49    1.47   -1.67    4.22   -0.94   -0.11    0.00    0.00       2.97   -2.19   -0.26
#  50    1.06   -0.44    0.19   -0.49   -0.08    0.00    0.00       0.23   -1.67   -0.28
#  51    0.99   -0.29    0.06   -0.49   -0.08    0.00    0.00       0.18   -1.73   -0.28
#  52    1.28   -1.22    2.29   -0.97   -0.12    0.00    0.00       1.25   -2.27   -0.28
#  53    0.67   -0.48    0.23   -0.52   -0.09    0.00    0.00      -0.19   -1.61   -0.28

@<TRIPOS>MOLECULE
      GL5243100_0       100
   53    55     0     0     0



@<TRIPOS>ATOM
      1 C1         15.1651   -14.2015     9.7794 C.3        1          -0.1408
      2 C2         13.7961   -14.8818     9.8410 C.3        1          -0.1167
      3 C3         12.7274   -13.9269     9.3054 C.3        1          -0.1550
      4 C4         13.8187   -16.1518     8.9881 C.3        1          -0.1018
      5 C5         14.8873   -17.1069     9.5237 C.3        1          -0.1203
      6 C6         14.5642   -17.4722    10.9738 C.3        1           0.1310
      7 N1         15.5874   -18.3868    11.4867 N.am       1          -0.7248
      8 C7         16.6871   -17.8965    12.0922 C.2        1           0.5098
      9 O1         16.8297   -16.6980    12.2126 O.2        1          -0.5372
     10 C8         17.7394   -18.8373    12.6198 C.3        1          -0.0679
     11 C9         17.1277   -19.7453    13.6554 C.2        1          -0.1447
     12 C10        17.7648   -20.7145    14.3435 C.2        1          -0.0045
     13 N2         16.8648   -21.3056    15.1797 N.pl3      1          -0.5621
     14 C11        15.6530   -20.7026    15.0154 C.2        1          -0.0220
     15 C12        15.7867   -19.7338    14.0870 C.2        1          -0.1819
     16 C13        14.9098   -18.3769     8.6707 C.3        1          -0.0659
     17 C14        16.2284   -19.0828     8.8554 C.ar       1          -0.0491
     18 C15        17.4042   -18.4409     8.5357 C.ar       1          -0.1159
     19 C16        18.6206   -19.0824     8.7028 C.ar       1          -0.1164
     20 C17        18.6692   -20.3763     9.1932 C.ar       1           0.0141
     21 O2         19.7210   -21.2099     9.4441 O.3        1          -0.3173
     22 C18        19.1994   -22.2353    10.3099 C.3        1           0.2110
     23 O3         17.7995   -22.2846     9.9763 O.3        1          -0.2991
     24 C19        17.4894   -21.0395     9.5214 C.ar       1           0.0481
     25 C20        16.2592   -20.3887     9.3574 C.ar       1          -0.0871
     26 C21        15.0058   -21.0769     9.7059 C.2        1           0.5366
     27 O4         14.5501   -20.9821    10.8373 O.co2      1          -0.6783
     28 O5         14.4196   -21.7438     8.8642 O.co2      1          -0.6729
     29 H1         15.9264   -14.8818    10.1610 H          1           0.0474
     30 H2         15.3953   -13.9412     8.7463 H          1           0.0479
     31 H3         15.1489   -13.2967    10.3871 H          1           0.0464
     32 H4         13.5658   -15.1420    10.8741 H          1           0.0929
     33 H5         11.7521   -14.4115     9.3492 H          1           0.0840
     34 H6         12.7112   -13.0221     9.9130 H          1           0.0419
     35 H7         12.9576   -13.6665     8.2722 H          1           0.0421
     36 H8         12.8434   -16.6363     9.0321 H          1           0.0559
     37 H9         14.0489   -15.8916     7.9550 H          1           0.0570
     38 H10        15.8627   -16.6223     9.4797 H          1           0.1240
     39 H11        14.5480   -16.5675    11.5816 H          1           0.0577
     40 H12        13.5887   -17.9568    11.0177 H          1           0.0703
     41 H13        15.4733   -19.3452    11.3903 H          1           0.3990
     42 H14        18.1355   -19.4362    11.7998 H          1           0.0983
     43 H15        18.5470   -18.2619    13.0726 H          1           0.0924
     44 H16        18.8080   -20.9774    14.2481 H          1           0.1588
     45 H17        17.0550   -22.0349    15.7903 H          1           0.4117
     46 H18        14.7441   -20.9544    15.5414 H          1           0.1606
     47 H19        15.0081   -19.0722    13.7369 H          1           0.1335
     48 H20        14.0984   -19.0362     8.9792 H          1           0.0846
     49 H21        14.7835   -18.1119     7.6210 H          1           0.0690
     50 H22        17.3777   -17.4317     8.1519 H          1           0.1302
     51 H23        19.5369   -18.5701     8.4488 H          1           0.1252
     52 H24        19.6769   -23.1926    10.1010 H          1           0.1238
     53 H25        19.3345   -21.9590    11.3556 H          1           0.0767
@<TRIPOS>BOND
     1    1    2 1
     2    1   29 1
     3    1   30 1
     4    1   31 1
     5    2    3 1
     6    2    4 1
     7    2   32 1
     8    3   33 1
     9    3   34 1
    10    3   35 1
    11    4    5 1
    12    4   36 1
    13    4   37 1
    14    5    6 1
    15    5   16 1
    16    5   38 1
    17    6    7 1
    18    6   39 1
    19    6   40 1
    20    7    8 am
    21    7   41 1
    22    8    9 2
    23    8   10 1
    24   10   11 1
    25   10   42 1
    26   10   43 1
    27   11   15 1
    28   11   12 2
    29   12   13 1
    30   12   44 1
    31   13   14 1
    32   13   45 1
    33   14   15 2
    34   14   46 1
    35   15   47 1
    36   16   17 1
    37   16   48 1
    38   16   49 1
    39   17   25 ar
    40   17   18 ar
    41   18   19 ar
    42   18   50 1
    43   19   20 ar
    44   19   51 1
    45   20   24 ar
    46   20   21 1
    47   21   22 1
    48   22   23 1
    49   22   52 1
    50   22   53 1
    51   23   24 1
    52   24   25 ar
    53   25   26 1
    54   26   27 1
    55   26   28 2
