GL5243102_0, 3
##########                 Name:          GL5243102_0
##########          Protonation:                   86
##########               SMILES:   CC(C)C[C@H](Cc1ccc2c(c1C(=O)[O-])OCO2)CNC(=O)Cc3c[nH]cn3
##########            Long Name:   ol-4-yl)acetyl]amino]methyl]-4-methyl-pentyl]-1,3-benzodioxole-4-carboxylate
##########          FlexRecCode: 1
##########               Number:                  657
##########   Ligand Source File: /raid1/people/rgc/Examples/sampl4/screening/ligands/build_1//sampl4-hivint-00000
##########           GlobalRank: 75
##########                 Rank:                    1
##########               Setnum:                   51
##########             Matchnum:                17053
##########                Cloud:                    1
##########        Electrostatic:           -42.616295
##########        Van der Waals:           -15.834236
##########  Ligand Polar Desolv:            20.601395
########## Ligand Apolar Desolv:            -2.122946
##########      Internal Energy:             0.000000
##########      Receptor Energy: 0.0
########## Receptor Desolvation:             0.000000
########## Receptor Hydrophobic:             0.000000
##########         Total Energy: -39.97
##########        Ligand Charge:            -1.000000
##########            Arbitrary:    +999.9990
##########     heavy atom count:   28
##########           pose count:    1
##########        Ligand Energy:             0.000000
# num electro vdwattr vdwrepu polsolv apolsol rdesolv rhydroe totalscore fullpol fullapo
#   1   -0.20   -0.15    0.00    0.16   -0.01    0.00    0.00      -0.19    2.03   -0.17
#   2   -0.18   -0.18    0.00    0.12   -0.01    0.00    0.00      -0.25    1.19   -0.14
#   3   -0.20   -0.17    0.01    0.09   -0.02    0.00    0.00      -0.29    0.97   -0.18
#   4   -0.38   -0.58    0.08    0.28   -0.04    0.00    0.00      -0.65    1.16   -0.17
#   5   -1.00   -0.42    0.02    0.37   -0.03    0.00    0.00      -1.05    1.60   -0.12
#   6    1.13   -0.25    0.02   -0.37   -0.05    0.00    0.00       0.48   -2.72   -0.37
#   7   -8.61   -0.34    0.03    1.48    0.19    0.00    0.00      -7.25   11.69    1.53
#   8    3.51   -0.27    0.01   -0.93   -0.07    0.00    0.00       2.25   -8.36   -0.66
#   9   -1.85   -0.15    0.00    0.93    0.03    0.00    0.00      -1.04   13.21    0.37
#  10   -0.40   -0.64    0.38    0.09   -0.05    0.00    0.00      -0.62    0.51   -0.27
#  11    0.16   -0.93    0.43    0.16   -0.12    0.00    0.00      -0.30    0.84   -0.64
#  12   -0.28   -0.33    0.02    0.03   -0.13    0.00    0.00      -0.69    0.24   -1.01
#  13   -2.88   -0.34    0.01    0.45    0.17    0.00    0.00      -2.58    3.15    1.22
#  14    1.12   -0.91    0.15   -0.37   -0.80    0.00    0.00      -0.82   -1.53   -3.33
#  15   -3.49   -1.87    1.56    2.22    0.55    0.00    0.00      -1.02    8.18    2.04
#  16   -1.43   -1.18    0.31    0.49   -0.06    0.00    0.00      -1.88    1.39   -0.18
#  17   -1.18   -1.61    0.56    0.41   -0.10    0.00    0.00      -1.94    1.26   -0.32
#  18   -1.59   -2.20    0.95    0.28   -0.14    0.00    0.00      -2.70    0.79   -0.39
#  19   -1.37   -2.07    0.84    0.26   -0.18    0.00    0.00      -2.52    0.68   -0.47
#  20    0.23   -1.39    0.30   -0.13   -0.12    0.00    0.00      -1.11   -0.36   -0.33
#  21   -3.73   -1.38    0.36    2.03    0.22    0.00    0.00      -2.49    4.78    0.52
#  22    2.89   -1.55    0.69   -1.45    0.01    0.00    0.00       0.59   -3.01    0.02
#  23   -5.81   -0.94    0.07    4.06    0.20    0.00    0.00      -2.41    9.71    0.48
#  24    1.00   -1.10    0.20    0.19   -0.11    0.00    0.00       0.17    0.56   -0.33
#  25   -2.35   -1.15    0.29    1.63   -0.12    0.00    0.00      -1.69    5.30   -0.40
#  26   20.47   -1.18    0.29   -6.77   -0.05    0.00    0.00      12.78  -19.33   -0.13
#  27  -27.44   -2.07    4.20    8.24   -0.11    0.00    0.00     -17.18   32.72   -0.42
#  28  -31.87   -1.65    0.33   12.55   -0.17    0.00    0.00     -20.81   28.71   -0.39
#  29    0.07   -0.04    0.00   -0.02   -0.01    0.00    0.00       0.01   -0.49   -0.28
#  30    0.06   -0.08    0.01   -0.08   -0.02    0.00    0.00      -0.11   -1.04   -0.28
#  31    0.07   -0.02    0.00    0.00    0.00    0.00    0.00       0.05   -0.08   -0.19
#  32    0.14   -0.03    0.00   -0.02    0.00    0.00    0.00       0.08   -0.97   -0.18
#  33    0.08   -0.06    0.00   -0.02   -0.02    0.00    0.00      -0.02   -0.42   -0.28
#  34    0.06   -0.02    0.00   -0.01   -0.01    0.00    0.00       0.02   -0.49   -0.28
#  35    0.07   -0.08    0.01   -0.04   -0.02    0.00    0.00      -0.07   -0.53   -0.28
#  36    0.43   -0.25    0.05   -0.21   -0.05    0.00    0.00      -0.03   -1.10   -0.28
#  37    0.16   -0.32    0.08   -0.21   -0.06    0.00    0.00      -0.35   -0.82   -0.22
#  38    0.64   -0.10    0.00   -0.07   -0.02    0.00    0.00       0.46   -0.73   -0.17
#  39    0.20   -0.03    0.00   -0.05   -0.01    0.00    0.00       0.11   -1.51   -0.28
#  40    0.67   -0.18    0.09    0.01   -0.04    0.00    0.00       0.55    0.11   -0.28
#  41    7.42   -0.01    0.00   -0.55    0.03    0.00    0.00       6.90   -6.10    0.31
#  42    0.95   -0.25    0.20   -0.21   -0.05    0.00    0.00       0.64   -1.27   -0.28
#  43    0.34   -0.30    0.22   -0.22   -0.05    0.00    0.00      -0.02   -1.24   -0.28
#  44    0.64   -0.03    0.00   -0.03   -0.01    0.00    0.00       0.57   -1.01   -0.28
#  45    1.46    0.00    0.00   -0.02    0.02    0.00    0.00       1.46   -0.66    0.60
#  46    1.13   -0.32    0.19   -0.26   -0.06    0.00    0.00       0.67   -1.22   -0.28
#  47    2.67   -0.35    0.11    0.11   -0.07    0.00    0.00       2.46    0.38   -0.25
#  48    1.53   -1.05    1.13   -0.91   -0.11    0.00    0.00       0.60   -2.31   -0.28
#  49    1.08   -0.52    0.20   -0.63   -0.09    0.00    0.00       0.04   -1.90   -0.28
#  50    0.62   -0.84    1.68   -0.67   -0.10    0.00    0.00       0.69   -1.83   -0.28
#  51    1.97   -0.84    0.91   -1.11   -0.14    0.00    0.00       0.79   -2.23   -0.28
#  52    0.65   -0.73    0.59   -0.68   -0.12    0.00    0.00      -0.28   -1.60   -0.28

@<TRIPOS>MOLECULE
      GL5243102_0        86
   52    54     0     0     0



@<TRIPOS>ATOM
      1 C1         14.8598   -14.0131     9.8037 C.3        1          -0.1588
      2 C2         13.5987   -14.7846    10.1981 C.3        1          -0.1177
      3 C3         12.3626   -13.9498     9.8578 C.3        1          -0.1427
      4 C4         13.5485   -16.1066     9.4294 C.3        1          -0.1091
      5 C5         14.7846   -16.9417     9.7696 C.3        1          -0.1059
      6 C6         14.8100   -17.2263    11.2726 C.3        1           0.1295
      7 N1         15.9935   -18.0260    11.5984 N.am       1          -0.7279
      8 C7         17.1505   -17.4157    11.9231 C.2        1           0.5103
      9 O1         17.2118   -16.2047    11.9456 O.2        1          -0.5255
     10 C8         18.3680   -18.2382    12.2583 C.3        1          -0.0590
     11 C9         18.0709   -19.1130    13.4490 C.2        1           0.0224
     12 C10        17.2108   -18.8279    14.4452 C.2        1          -0.0528
     13 N2         17.2458   -19.8858    15.3134 N.pl3      1          -0.5727
     14 C11        18.1266   -20.7809    14.8168 C.2        1           0.1791
     15 N3         18.6125   -20.3143    13.6992 N.2        1          -0.4646
     16 C12        14.7345   -18.2636     9.0010 C.3        1          -0.0648
     17 C13        16.1180   -18.8571     8.9317 C.ar       1          -0.0540
     18 C14        17.1390   -18.1556     8.3300 C.ar       1          -0.1147
     19 C15        18.4144   -18.6934     8.2616 C.ar       1          -0.1167
     20 C16        18.6762   -19.9415     8.7978 C.ar       1           0.0149
     21 O2         19.8131   -20.6900     8.8670 O.3        1          -0.3174
     22 C17        19.3959   -22.0416     9.1125 C.3        1           0.2108
     23 O3         18.1779   -21.8407     9.8449 O.3        1          -0.2993
     24 C18        17.6544   -20.6640     9.4104 C.ar       1           0.0457
     25 C19        16.3669   -20.1191     9.4840 C.ar       1          -0.0856
     26 C20        15.2807   -20.8705    10.1335 C.2        1           0.5354
     27 O4         15.0701   -20.7298    11.3303 O.co2      1          -0.6799
     28 O5         14.5886   -21.6361     9.4764 O.co2      1          -0.6765
     29 H1         15.7403   -14.6079    10.0460 H          1           0.0571
     30 H2         14.8416   -13.8104     8.7328 H          1           0.0497
     31 H3         14.8955   -13.0711    10.3511 H          1           0.0674
     32 H4         13.6168   -14.9874    11.2688 H          1           0.0850
     33 H5         11.4642   -14.4994    10.1388 H          1           0.0513
     34 H6         12.3983   -13.0079    10.4053 H          1           0.0503
     35 H7         12.3445   -13.7470     8.7870 H          1           0.0494
     36 H8         12.6502   -16.6563     9.7103 H          1           0.0584
     37 H9         13.5305   -15.9039     8.3585 H          1           0.0695
     38 H10        15.6830   -16.3919     9.4887 H          1           0.1093
     39 H11        14.8458   -16.2845    11.8202 H          1           0.0668
     40 H12        13.9117   -17.7761    11.5534 H          1           0.0650
     41 H13        15.9446   -18.9945    11.5802 H          1           0.4038
     42 H14        18.6305   -18.8634    11.4047 H          1           0.1039
     43 H15        19.2009   -17.5756    12.4930 H          1           0.1021
     44 H16        16.6093   -17.9361    14.5412 H          1           0.1761
     45 H17        16.7335   -19.9756    16.1320 H          1           0.4180
     46 H18        18.3834   -21.7280    15.2680 H          1           0.2052
     47 H19        14.0670   -18.9566     9.5132 H          1           0.0828
     48 H20        14.3656   -18.0830     7.9913 H          1           0.0703
     49 H21        16.9445   -17.1805     7.9085 H          1           0.1305
     50 H22        19.2080   -18.1355     7.7869 H          1           0.1252
     51 H23        19.2066   -22.5677     8.1768 H          1           0.1240
     52 H24        20.1313   -22.5733     9.7163 H          1           0.0764
@<TRIPOS>BOND
     1    1    2 1
     2    1   29 1
     3    1   30 1
     4    1   31 1
     5    2    3 1
     6    2    4 1
     7    2   32 1
     8    3   33 1
     9    3   34 1
    10    3   35 1
    11    4    5 1
    12    4   36 1
    13    4   37 1
    14    5    6 1
    15    5   16 1
    16    5   38 1
    17    6    7 1
    18    6   39 1
    19    6   40 1
    20    7    8 am
    21    7   41 1
    22    8    9 2
    23    8   10 1
    24   10   11 1
    25   10   42 1
    26   10   43 1
    27   11   15 1
    28   11   12 2
    29   12   13 1
    30   12   44 1
    31   13   14 1
    32   13   45 1
    33   14   15 2
    34   14   46 1
    35   16   17 1
    36   16   47 1
    37   16   48 1
    38   17   25 ar
    39   17   18 ar
    40   18   19 ar
    41   18   49 1
    42   19   20 ar
    43   19   50 1
    44   20   24 ar
    45   20   21 1
    46   21   22 1
    47   22   23 1
    48   22   51 1
    49   22   52 1
    50   23   24 1
    51   24   25 ar
    52   25   26 1
    53   26   27 1
    54   26   28 2
