AVX17280_0
  -OEChem-04011314523D

 31 33  0     1  0  0  0  0  0999 V2000
    0.6617   -0.8335   -0.9502 C   0  0  0  0  0  0  0  0  0  0  0  0
   -0.3677   -0.0155    1.5997 C   0  0  0  0  0  0  0  0  0  0  0  0
   -0.1609    0.2652   -0.7891 C   0  0  0  0  0  0  0  0  0  0  0  0
    0.9517   -1.5145    0.2158 C   0  0  0  0  0  0  0  0  0  0  0  0
   -0.6676    0.6744    0.4385 C   0  0  0  0  0  0  0  0  0  0  0  0
    0.4541   -1.1192    1.4490 C   0  0  0  0  0  0  0  0  0  0  0  0
   -0.6667    1.2069   -1.7511 C   0  0  0  0  0  0  0  0  0  0  0  0
   -1.4649    6.0092   -0.4888 C   0  0  0  0  0  0  0  0  0  0  0  0
    1.6809   -2.8837    1.7287 C   0  0  0  0  0  0  0  0  0  0  0  0
   -1.5465    2.1775   -1.0010 C   0  0  2  0  0  0  0  0  0  0  0  0
   -1.9719    8.2135    0.2055 C   0  0  0  0  0  0  0  0  0  0  0  0
   -1.9468    4.5816   -0.3659 C   0  0  0  0  0  0  0  0  0  0  0  0
   -1.0767    3.6097   -1.1621 C   0  0  0  0  0  0  0  0  0  0  0  0
   -0.4137    1.1978   -2.9396 O   0  0  0  0  0  0  0  0  0  0  0  0
   -0.4859    6.3711   -1.1269 O   0  0  0  0  0  0  0  0  0  0  0  0
    1.7366   -2.6236    0.3115 O   0  0  0  0  0  0  0  0  0  0  0  0
    0.8723   -1.9366    2.4556 O   0  0  0  0  0  0  0  0  0  0  0  0
   -1.4575    1.7950    0.3941 O   0  0  0  0  0  0  0  0  0  0  0  0
   -2.3000    6.8205    0.2260 O   0  0  0  0  0  0  0  0  0  0  0  0
    1.0494   -1.1380   -1.9129 H   0  0  0  0  0  0  0  0  0  0  0  0
   -0.7507    0.2882    2.5655 H   0  0  0  0  0  0  0  0  0  0  0  0
    1.2699   -3.8878    1.8848 H   0  0  0  0  0  0  0  0  0  0  0  0
    2.7003   -2.8551    2.1305 H   0  0  0  0  0  0  0  0  0  0  0  0
   -2.5862    2.0529   -1.3222 H   0  0  0  0  0  0  0  0  0  0  0  0
   -2.6983    8.7685    0.8043 H   0  0  0  0  0  0  0  0  0  0  0  0
   -1.9809    8.5758   -0.8256 H   0  0  0  0  0  0  0  0  0  0  0  0
   -0.9740    8.3499    0.6289 H   0  0  0  0  0  0  0  0  0  0  0  0
   -1.9313    4.3057    0.6945 H   0  0  0  0  0  0  0  0  0  0  0  0
   -2.9786    4.5367   -0.7320 H   0  0  0  0  0  0  0  0  0  0  0  0
   -1.0933    3.8826   -2.2255 H   0  0  0  0  0  0  0  0  0  0  0  0
   -0.0322    3.6918   -0.8340 H   0  0  0  0  0  0  0  0  0  0  0  0
  1  3  2  0  0  0  0
  1  4  1  0  0  0  0
  2  5  2  0  0  0  0
  2  6  1  0  0  0  0
  3  5  1  0  0  0  0
  3  7  1  0  0  0  0
  4  6  2  0  0  0  0
  4 16  1  0  0  0  0
  5 18  1  0  0  0  0
  6 17  1  0  0  0  0
  7 10  1  0  0  0  0
  7 14  2  0  0  0  0
  8 12  1  0  0  0  0
  8 15  2  0  0  0  0
  8 19  1  0  0  0  0
  9 16  1  0  0  0  0
  9 17  1  0  0  0  0
 10 13  1  0  0  0  0
 10 18  1  0  0  0  0
 11 19  1  0  0  0  0
 12 13  1  0  0  0  0
  1 20  1  0  0  0  0
  2 21  1  0  0  0  0
  9 22  1  0  0  0  0
  9 23  1  0  0  0  0
 10 24  1  0  0  0  0
 11 25  1  0  0  0  0
 11 26  1  0  0  0  0
 11 27  1  0  0  0  0
 12 28  1  0  0  0  0
 12 29  1  0  0  0  0
 13 30  1  0  0  0  0
 13 31  1  0  0  0  0
M  END
$$$$
