@<TRIPOS>MOLECULE
AVX17267_1
   39    41     0     0     0
SMALL
NO_CHARGES

@<TRIPOS>ATOM
      1 C1          3.8860    2.2730   -3.6490 C.ar      1 MOL         0.0000
      2 C2          2.7594    9.2322    1.2861 C.ar      1 MOL         0.0000
      3 C3          2.7934    3.0067   -4.1112 C.ar      1 MOL         0.0000
      4 C4          2.1203   10.2992    0.6283 C.ar      1 MOL         0.0000
      5 C5          4.4878    2.6075   -2.4359 C.ar      1 MOL         0.0000
      6 C6          3.0953    8.0622    0.5972 C.ar      1 MOL         0.0000
      7 C7          2.3027    4.0749   -3.3603 C.ar      1 MOL         0.0000
      8 C8          1.8065   10.2154   -0.7292 C.ar      1 MOL         0.0000
      9 C9          3.9971    3.6757   -1.6850 C.ar      1 MOL         0.0000
     10 C10         2.7778    7.9840   -0.7462 C.ar      1 MOL         0.0000
     11 C11         2.9046    4.4094   -2.1472 C.ar      1 MOL         0.0000
     12 C12         2.1484    9.0500   -1.3853 C.ar      1 MOL         0.0000
     13 C13         2.4104    7.4574   -3.0271 C.2       1 MOL         0.0000
     14 C14         4.6448    4.0039   -0.4222 C.2       1 MOL         0.0000
     15 C15         3.0211    6.8799   -1.7352 C.3       1 MOL         0.0000
     16 C16         5.0446    1.8942    2.5573 C.3       1 MOL         0.0000
     17 C17         2.3543    5.5685   -1.3569 C.3       1 MOL         0.0000
     18 C18         5.1996    3.1562    1.7357 C.3       1 MOL         0.0000
     19 N1          1.9355    8.7379   -2.7231 N.am      1 MOL         0.0000
     20 O1          2.3602    6.8885   -4.1071 O.2       1 MOL         0.0000
     21 O2          5.1727    5.0939   -0.1713 O.2       1 MOL         0.0000
     22 O3          4.5951    2.9551    0.4536 O.3       1 MOL         0.0000
     23 H1          4.2684    1.4409   -4.2333 H         1 MOL         0.0000
     24 H2          2.9953    9.3212    2.3433 H         1 MOL         0.0000
     25 H3          2.3254    2.7459   -5.0560 H         1 MOL         0.0000
     26 H4          1.8703   11.1981    1.1857 H         1 MOL         0.0000
     27 H5          5.3393    2.0287   -2.0871 H         1 MOL         0.0000
     28 H6          3.5921    7.2450    1.1083 H         1 MOL         0.0000
     29 H7          1.4507    4.6397   -3.7293 H         1 MOL         0.0000
     30 H8          1.3146   11.0357   -1.2390 H         1 MOL         0.0000
     31 H9          4.0976    6.7518   -1.8938 H         1 MOL         0.0000
     32 H10         3.9885    1.6512    2.7038 H         1 MOL         0.0000
     33 H11         5.5368    1.0496    2.0641 H         1 MOL         0.0000
     34 H12         5.5193    2.0111    3.5372 H         1 MOL         0.0000
     35 H13         1.2711    5.6418   -1.5171 H         1 MOL         0.0000
     36 H14         2.4879    5.3787   -0.2842 H         1 MOL         0.0000
     37 H15         6.2580    3.3937    1.5930 H         1 MOL         0.0000
     38 H16         4.7066    3.9989    2.2295 H         1 MOL         0.0000
     39 H17         1.4850    9.3630   -3.3809 H         1 MOL         0.0000
@<TRIPOS>BOND
     1    1    3 ar
     2    1    5 ar
     3    2    4 ar
     4    2    6 ar
     5    3    7 ar
     6    4    8 ar
     7    5    9 ar
     8    6   10 ar
     9    7   11 ar
    10    8   12 ar
    11    9   11 ar
    12    9   14 1
    13   10   12 ar
    14   10   15 1
    15   11   17 1
    16   12   19 1
    17   13   15 1
    18   13   19 am
    19   13   20 2
    20   14   21 2
    21   14   22 1
    22   15   17 1
    23   16   18 1
    24   18   22 1
    25    1   23 1
    26    2   24 1
    27    3   25 1
    28    4   26 1
    29    5   27 1
    30    6   28 1
    31    7   29 1
    32    8   30 1
    33   15   31 1
    34   16   32 1
    35   16   33 1
    36   16   34 1
    37   17   35 1
    38   17   36 1
    39   18   37 1
    40   18   38 1
    41   19   39 1
