@<TRIPOS>MOLECULE
AVX101178_0
   43    46     0     0     0
SMALL
NO_CHARGES

@<TRIPOS>ATOM
      1 C1          0.6112    4.1777    2.1795 C.ar      1 MOL         0.0000
      2 C2          0.5889   -1.1456    1.7256 C.ar      1 MOL         0.0000
      3 C3          0.2559    2.9957    1.5191 C.ar      1 MOL         0.0000
      4 C4          0.8187   -2.4197    2.2454 C.ar      1 MOL         0.0000
      5 C5          2.8543    4.1208    1.2230 C.ar      1 MOL         0.0000
      6 C6          2.4768    2.9584    0.5853 C.ar      1 MOL         0.0000
      7 C7          1.8973    4.7343    2.0327 C.ar      1 MOL         0.0000
      8 C8          0.0024   -2.1152   -0.4103 C.ar      1 MOL         0.0000
      9 C9          0.1764   -0.9939    0.4014 C.ar      1 MOL         0.0000
     10 C10         1.2097    2.3942    0.7190 C.ar      1 MOL         0.0000
     11 C11         0.6323   -3.5423    1.4384 C.ar      1 MOL         0.0000
     12 C12         0.2452   -3.3889    0.1047 C.ar      1 MOL         0.0000
     13 C13         3.2316    2.0914   -0.3156 C.2       1 MOL         0.0000
     14 C14         2.2968    0.9541   -0.7094 C.2       1 MOL         0.0000
     15 C15         2.2304    5.9654    2.7338 C.2       1 MOL         0.0000
     16 C16         3.4833    6.3977    2.9980 C.2       1 MOL         0.0000
     17 C17        -0.4256   -1.9497   -1.8145 C.2       1 MOL         0.0000
     18 C18         3.7538    7.7063    3.7557 C.2       1 MOL         0.0000
     19 C19         0.3096   -5.8306    1.2244 C.3       1 MOL         0.0000
     20 C20         0.6750   -5.6439   -0.2353 C.3       1 MOL         0.0000
     21 C21        -0.0697    0.3909   -0.1241 C.3       1 MOL         0.0000
     22 N1          1.1108    1.2161   -0.0446 N.am      1 MOL         0.0000
     23 O1         -1.6838   -1.9464   -2.0769 O.co2     1 MOL         0.0000
     24 O2          2.7049    8.3268    4.1010 O.co2     1 MOL         0.0000
     25 O3          4.3689    2.2046   -0.7038 O.2       1 MOL         0.0000
     26 O4          2.6347    0.0623   -1.4576 O.2       1 MOL         0.0000
     27 O5          0.4766   -1.8157   -2.7201 O.co2     1 MOL         0.0000
     28 O6          4.9615    8.0176    3.9523 O.co2     1 MOL         0.0000
     29 O7          0.8540   -4.7674    2.0112 O.3       1 MOL         0.0000
     30 O8          0.0774   -4.4495   -0.7468 O.3       1 MOL         0.0000
     31 H1         -0.1280    4.6650    2.8127 H         1 MOL         0.0000
     32 H2          0.7299   -0.2764    2.3629 H         1 MOL         0.0000
     33 H3         -0.7380    2.5801    1.6411 H         1 MOL         0.0000
     34 H4          1.1315   -2.5292    3.2802 H         1 MOL         0.0000
     35 H5          3.8494    4.5335    1.0969 H         1 MOL         0.0000
     36 H6          1.3806    6.5611    3.0829 H         1 MOL         0.0000
     37 H7          4.3363    5.7992    2.6809 H         1 MOL         0.0000
     38 H8         -0.7776   -5.8531    1.3696 H         1 MOL         0.0000
     39 H9          0.7245   -6.7701    1.6024 H         1 MOL         0.0000
     40 H10         1.7613   -5.5788   -0.3742 H         1 MOL         0.0000
     41 H11         0.3038   -6.4837   -0.8308 H         1 MOL         0.0000
     42 H12        -0.3865    0.3555   -1.1722 H         1 MOL         0.0000
     43 H13        -0.8652    0.8895    0.4395 H         1 MOL         0.0000
@<TRIPOS>BOND
     1    1    3 ar
     2    1    7 ar
     3    2    4 ar
     4    2    9 ar
     5    3   10 ar
     6    4   11 ar
     7    5    6 ar
     8    5    7 ar
     9    6   10 ar
    10    6   13 1
    11    7   15 1
    12    8    9 ar
    13    8   12 ar
    14    8   17 1
    15    9   21 1
    16   10   22 1
    17   11   12 ar
    18   11   29 1
    19   12   30 1
    20   13   14 1
    21   13   25 2
    22   14   22 am
    23   14   26 2
    24   15   16 2
    25   16   18 1
    26   17   23 1
    27   17   27 2
    28   18   24 1
    29   18   28 2
    30   19   20 1
    31   19   29 1
    32   20   30 1
    33   21   22 1
    34    1   31 1
    35    2   32 1
    36    3   33 1
    37    4   34 1
    38    5   35 1
    39   15   36 1
    40   16   37 1
    41   19   38 1
    42   19   39 1
    43   20   40 1
    44   20   41 1
    45   21   42 1
    46   21   43 1
