@<TRIPOS>MOLECULE
AVX17560_0
   54    55     0     0     0
SMALL
NO_CHARGES

@<TRIPOS>ATOM
      1 C1         -2.2653    1.6460   -2.7314 C.ar      1 MOL         0.0000
      2 C2         -2.4033    2.8517   -3.4232 C.ar      1 MOL         0.0000
      3 C3         -3.1942    2.6467   -0.7155 C.ar      1 MOL         0.0000
      4 C4         -2.6585    1.5440   -1.3854 C.ar      1 MOL         0.0000
      5 C5         -2.9350    3.9254   -2.7388 C.ar      1 MOL         0.0000
      6 C6         -3.3199    3.8256   -1.4213 C.ar      1 MOL         0.0000
      7 C7         -3.6142    2.5657    0.6927 C.2       1 MOL         0.0000
      8 C8          2.1868    0.6571   -0.8641 C.2       1 MOL         0.0000
      9 C9         -3.7025    5.8446   -2.0989 C.3       1 MOL         0.0000
     10 C10        -1.1429   -3.0784   -2.0429 C.3       1 MOL         0.0000
     11 C11        -1.5340   -4.1008    0.2070 C.3       1 MOL         0.0000
     12 C12        -2.4894    0.2190   -0.6808 C.3       1 MOL         0.0000
     13 C13         3.5636    0.1293   -0.5012 C.3       1 MOL         0.0000
     14 C14         4.6024    0.4142   -1.5831 C.3       1 MOL         0.0000
     15 C15        -0.9360   -1.6641    0.0717 C.3       1 MOL         0.0000
     16 C16        -0.1280    0.7815    0.0352 C.3       1 MOL         0.0000
     17 C17         5.9579   -0.1630   -1.2049 C.3       1 MOL         0.0000
     18 C18        -1.6703   -2.8251   -0.6302 C.3       1 MOL         0.0000
     19 C19        -1.0240   -0.2830   -0.6244 C.3       1 MOL         0.0000
     20 N1          1.2517    0.3901    0.1308 N.am      1 MOL         0.0000
     21 N2          6.9423    0.1768   -2.2604 N.4       1 MOL         0.0000
     22 O1         -4.8279    2.2269    0.9590 O.co2     1 MOL         0.0000
     23 O2         -2.7544    2.8367    1.6126 O.co2     1 MOL         0.0000
     24 O3          1.9468    1.2450   -1.9153 O.2       1 MOL         0.0000
     25 O4         -3.1438    5.1710   -3.2454 O.3       1 MOL         0.0000
     26 O5         -3.8176    4.9964   -0.9380 O.3       1 MOL         0.0000
     27 H1         -1.8496    0.7827   -3.2457 H         1 MOL         0.0000
     28 H2         -2.1015    2.9346   -4.4610 H         1 MOL         0.0000
     29 H3         -3.0629    6.6984   -1.8475 H         1 MOL         0.0000
     30 H4         -4.6994    6.2167   -2.3619 H         1 MOL         0.0000
     31 H5         -0.0735   -3.3144   -2.0311 H         1 MOL         0.0000
     32 H6         -1.6688   -3.9188   -2.5089 H         1 MOL         0.0000
     33 H7         -1.2927   -2.2070   -2.6871 H         1 MOL         0.0000
     34 H8         -0.4820   -4.3875    0.3109 H         1 MOL         0.0000
     35 H9         -2.0607   -4.9355   -0.2674 H         1 MOL         0.0000
     36 H10        -1.9486   -3.9643    1.2116 H         1 MOL         0.0000
     37 H11        -3.1137   -0.5148   -1.2083 H         1 MOL         0.0000
     38 H12        -2.9042    0.2839    0.3335 H         1 MOL         0.0000
     39 H13         3.4829   -0.9518   -0.3357 H         1 MOL         0.0000
     40 H14         3.8702    0.5936    0.4438 H         1 MOL         0.0000
     41 H15         4.6874    1.4976   -1.7368 H         1 MOL         0.0000
     42 H16         4.2674   -0.0120   -2.5374 H         1 MOL         0.0000
     43 H17        -1.3214   -1.5728    1.0960 H         1 MOL         0.0000
     44 H18         0.1205   -1.9437    0.1722 H         1 MOL         0.0000
     45 H19        -0.1586    1.7146   -0.5378 H         1 MOL         0.0000
     46 H20        -0.4714    1.0181    1.0466 H         1 MOL         0.0000
     47 H21         6.3369    0.2596   -0.2697 H         1 MOL         0.0000
     48 H22         5.9336   -1.2543   -1.1331 H         1 MOL         0.0000
     49 H23        -2.7397   -2.5943   -0.6954 H         1 MOL         0.0000
     50 H24        -0.6696   -0.3978   -1.6566 H         1 MOL         0.0000
     51 H25         1.5461   -0.1381    0.9511 H         1 MOL         0.0000
     52 H26         7.2215   -0.6590   -2.7856 H         1 MOL         0.0000
     53 H27         7.7883    0.5910   -1.8537 H         1 MOL         0.0000
     54 H28         6.5494    0.8513   -2.9262 H         1 MOL         0.0000
@<TRIPOS>BOND
     1    1    2 ar
     2    1    4 ar
     3    2    5 ar
     4    3    4 ar
     5    3    6 ar
     6    3    7 1
     7    4   12 1
     8    5    6 ar
     9    5   25 1
    10    6   26 1
    11    7   22 1
    12    7   23 2
    13    8   13 1
    14    8   20 am
    15    8   24 2
    16    9   25 1
    17    9   26 1
    18   10   18 1
    19   11   18 1
    20   12   19 1
    21   13   14 1
    22   14   17 1
    23   15   18 1
    24   15   19 1
    25   16   19 1
    26   16   20 1
    27   17   21 1
    28    1   27 1
    29    2   28 1
    30    9   29 1
    31    9   30 1
    32   10   31 1
    33   10   32 1
    34   10   33 1
    35   11   34 1
    36   11   35 1
    37   11   36 1
    38   12   37 1
    39   12   38 1
    40   13   39 1
    41   13   40 1
    42   14   41 1
    43   14   42 1
    44   15   43 1
    45   15   44 1
    46   16   45 1
    47   16   46 1
    48   17   47 1
    49   17   48 1
    50   18   49 1
    51   19   50 1
    52   20   51 1
    53   21   52 1
    54   21   53 1
    55   21   54 1
