@<TRIPOS>MOLECULE
AVX17556_0
   56    59     0     0     0
SMALL
NO_CHARGES

@<TRIPOS>ATOM
      1 C1          0.8227    2.4972    0.7613 C.ar      1 MOL         0.0000
      2 C2         -0.4669    2.5713    0.2131 C.ar      1 MOL         0.0000
      3 C3          1.5390    1.2996    0.7338 C.ar      1 MOL         0.0000
      4 C4         -1.0594    1.4490   -0.3711 C.ar      1 MOL         0.0000
      5 C5         -2.4796   -3.8559   -1.4741 C.ar      1 MOL         0.0000
      6 C6         -2.8336   -4.8738   -2.3629 C.ar      1 MOL         0.0000
      7 C7         -3.0745   -2.1579   -3.1146 C.ar      1 MOL         0.0000
      8 C8          0.9389    0.1885    0.1645 C.ar      1 MOL         0.0000
      9 C9         -0.3497    0.2584   -0.3845 C.ar      1 MOL         0.0000
     10 C10        -2.5995   -2.5057   -1.8477 C.ar      1 MOL         0.0000
     11 C11        -3.2998   -4.5036   -3.6076 C.ar      1 MOL         0.0000
     12 C12        -3.4172   -3.1820   -3.9733 C.ar      1 MOL         0.0000
     13 C13        -3.2102   -0.7525   -3.5295 C.2       1 MOL         0.0000
     14 C14         0.1187   -3.7704    1.5082 C.2       1 MOL         0.0000
     15 C15         1.5227   -1.1831   -0.0012 C.3       1 MOL         0.0000
     16 C16        -4.0662   -4.4145   -5.6292 C.3       1 MOL         0.0000
     17 C17        -0.7357   -1.0684   -0.9834 C.3       1 MOL         0.0000
     18 C18         0.2556   -2.0223   -0.2630 C.3       1 MOL         0.0000
     19 C19        -2.2053   -1.4449   -0.8546 C.3       1 MOL         0.0000
     20 C20        -0.5652   -4.0428    2.8381 C.3       1 MOL         0.0000
     21 C21        -0.8014   -5.5264    3.1167 C.3       1 MOL         0.0000
     22 C22        -1.7460   -6.1687    2.0964 C.3       1 MOL         0.0000
     23 C23        -1.9338   -7.6508    2.3869 C.3       1 MOL         0.0000
     24 N1         -0.2619   -2.5453    0.9850 N.am      1 MOL         0.0000
     25 N2         -2.8880   -8.2210    1.4056 N.4       1 MOL         0.0000
     26 O1         -4.3230   -0.1443   -3.3044 O.co2     1 MOL         0.0000
     27 O2         -2.2119   -0.1767   -4.1046 O.co2     1 MOL         0.0000
     28 O3          0.9206   -4.5446    0.9930 O.2       1 MOL         0.0000
     29 O4         -3.6905   -5.3507   -4.5983 O.3       1 MOL         0.0000
     30 O5         -3.8957   -3.0364   -5.2389 O.3       1 MOL         0.0000
     31 H1          1.2689    3.3828    1.2056 H         1 MOL         0.0000
     32 H2         -1.0066    3.5142    0.2372 H         1 MOL         0.0000
     33 H3          2.5395    1.2462    1.1494 H         1 MOL         0.0000
     34 H4         -2.0502    1.5210   -0.8061 H         1 MOL         0.0000
     35 H5         -2.1094   -4.1181   -0.4858 H         1 MOL         0.0000
     36 H6         -2.7428   -5.9160   -2.0788 H         1 MOL         0.0000
     37 H7          2.1846   -1.1908   -0.8739 H         1 MOL         0.0000
     38 H8          2.0709   -1.5091    0.8880 H         1 MOL         0.0000
     39 H9         -3.4531   -4.6059   -6.5173 H         1 MOL         0.0000
     40 H10        -5.1190   -4.5789   -5.8858 H         1 MOL         0.0000
     41 H11        -0.4715   -1.0323   -2.0492 H         1 MOL         0.0000
     42 H12         0.4807   -2.8974   -0.8823 H         1 MOL         0.0000
     43 H13        -2.8281   -0.5541   -0.9974 H         1 MOL         0.0000
     44 H14        -2.4080   -1.7972    0.1636 H         1 MOL         0.0000
     45 H15        -1.5134   -3.4938    2.8779 H         1 MOL         0.0000
     46 H16         0.0856   -3.6345    3.6211 H         1 MOL         0.0000
     47 H17         0.1525   -6.0672    3.1341 H         1 MOL         0.0000
     48 H18        -1.2418   -5.6252    4.1167 H         1 MOL         0.0000
     49 H19        -2.7174   -5.6594    2.1263 H         1 MOL         0.0000
     50 H20        -1.3497   -6.0400    1.0823 H         1 MOL         0.0000
     51 H21        -2.3588   -7.8236    3.3800 H         1 MOL         0.0000
     52 H22        -0.9995   -8.2103    2.2830 H         1 MOL         0.0000
     53 H23        -0.9433   -1.9800    1.4797 H         1 MOL         0.0000
     54 H24        -3.5830   -7.5227    1.1199 H         1 MOL         0.0000
     55 H25        -3.3908   -9.0213    1.8050 H         1 MOL         0.0000
     56 H26        -2.3999   -8.5437    0.5629 H         1 MOL         0.0000
@<TRIPOS>BOND
     1    1    2 ar
     2    1    3 ar
     3    2    4 ar
     4    3    8 ar
     5    4    9 ar
     6    5    6 ar
     7    5   10 ar
     8    6   11 ar
     9    7   10 ar
    10    7   12 ar
    11    7   13 1
    12    8    9 ar
    13    8   15 1
    14    9   17 1
    15   10   19 1
    16   11   12 ar
    17   11   29 1
    18   12   30 1
    19   13   26 1
    20   13   27 2
    21   14   20 1
    22   14   24 am
    23   14   28 2
    24   15   18 1
    25   16   29 1
    26   16   30 1
    27   17   18 1
    28   17   19 1
    29   18   24 1
    30   20   21 1
    31   21   22 1
    32   22   23 1
    33   23   25 1
    34    1   31 1
    35    2   32 1
    36    3   33 1
    37    4   34 1
    38    5   35 1
    39    6   36 1
    40   15   37 1
    41   15   38 1
    42   16   39 1
    43   16   40 1
    44   17   41 1
    45   18   42 1
    46   19   43 1
    47   19   44 1
    48   20   45 1
    49   20   46 1
    50   21   47 1
    51   21   48 1
    52   22   49 1
    53   22   50 1
    54   23   51 1
    55   23   52 1
    56   24   53 1
    57   25   54 1
    58   25   55 1
    59   25   56 1
