@<TRIPOS>MOLECULE
AVX17257_0
   32    34     0     0     0
SMALL
NO_CHARGES

@<TRIPOS>ATOM
      1 C1         -2.1742    5.0291    1.4506 C.ar      1 MOL         0.0000
      2 C2          5.4219    5.1226   -2.0884 C.ar      1 MOL         0.0000
      3 C3         -0.8771    5.5417    1.4313 C.ar      1 MOL         0.0000
      4 C4          4.4712    6.1126   -2.3929 C.ar      1 MOL         0.0000
      5 C5         -2.7000    4.4189    0.3117 C.ar      1 MOL         0.0000
      6 C6          5.0209    3.8334   -1.7289 C.ar      1 MOL         0.0000
      7 C7         -0.1058    5.4442    0.2732 C.ar      1 MOL         0.0000
      8 C8          3.1040    5.8300   -2.3433 C.ar      1 MOL         0.0000
      9 C9         -1.9287    4.3214   -0.8464 C.ar      1 MOL         0.0000
     10 C10         3.6657    3.5634   -1.6823 C.ar      1 MOL         0.0000
     11 C11        -0.6316    4.8341   -0.8656 C.ar      1 MOL         0.0000
     12 C12         2.7261    4.5481   -1.9852 C.ar      1 MOL         0.0000
     13 C13         1.4901    2.6615   -1.4746 C.2       1 MOL         0.0000
     14 C14        -2.5044    3.6732   -2.0387 C.2       1 MOL         0.0000
     15 C15         2.9684    2.2880   -1.3335 C.3       1 MOL         0.0000
     16 C16         0.2198    4.7433   -2.0990 C.3       1 MOL         0.0000
     17 N1          1.4392    4.0084   -1.8607 N.am      1 MOL         0.0000
     18 O1         -3.1449    4.3983   -2.8870 O.co2     1 MOL         0.0000
     19 O2          0.5588    1.8949   -1.2778 O.2       1 MOL         0.0000
     20 O3         -2.3464    2.4050   -2.1889 O.co2     1 MOL         0.0000
     21 H1         -2.7742    5.1048    2.3525 H         1 MOL         0.0000
     22 H2          6.4803    5.3647   -2.1341 H         1 MOL         0.0000
     23 H3         -0.4677    6.0168    2.3179 H         1 MOL         0.0000
     24 H4          4.8064    7.1086   -2.6699 H         1 MOL         0.0000
     25 H5         -3.7115    4.0217    0.3384 H         1 MOL         0.0000
     26 H6          5.7554    3.0711   -1.4939 H         1 MOL         0.0000
     27 H7          0.9029    5.8488    0.2674 H         1 MOL         0.0000
     28 H8          2.3778    6.5992   -2.5802 H         1 MOL         0.0000
     29 H9          3.2132    1.4915   -2.0408 H         1 MOL         0.0000
     30 H10         3.1725    1.9906   -0.3016 H         1 MOL         0.0000
     31 H11        -0.3237    4.2419   -2.9072 H         1 MOL         0.0000
     32 H12         0.4946    5.7396   -2.4610 H         1 MOL         0.0000
@<TRIPOS>BOND
     1    1    3 ar
     2    1    5 ar
     3    2    4 ar
     4    2    6 ar
     5    3    7 ar
     6    4    8 ar
     7    5    9 ar
     8    6   10 ar
     9    7   11 ar
    10    8   12 ar
    11    9   11 ar
    12    9   14 1
    13   10   12 ar
    14   10   15 1
    15   11   16 1
    16   12   17 1
    17   13   15 1
    18   13   17 am
    19   13   19 2
    20   14   18 1
    21   14   20 2
    22   16   17 1
    23    1   21 1
    24    2   22 1
    25    3   23 1
    26    4   24 1
    27    5   25 1
    28    6   26 1
    29    7   27 1
    30    8   28 1
    31   15   29 1
    32   15   30 1
    33   16   31 1
    34   16   32 1
