AVX101119_1
  -OEChem-04011314503D

 64 67  0     1  0  0  0  0  0999 V2000
   -0.5813   -2.3148   -3.0009 C   0  0  0  0  0  0  0  0  0  0  0  0
    0.1383   -1.1355   -2.8089 C   0  0  0  0  0  0  0  0  0  0  0  0
    3.1162   -6.3014    0.2067 C   0  0  0  0  0  0  0  0  0  0  0  0
    2.0851   -5.6043    2.2775 C   0  0  0  0  0  0  0  0  0  0  0  0
    0.0521   -3.4406   -3.5274 C   0  0  0  0  0  0  0  0  0  0  0  0
    3.6340   -7.4289    0.8441 C   0  0  0  0  0  0  0  0  0  0  0  0
    2.6029   -6.7318    2.9149 C   0  0  0  0  0  0  0  0  0  0  0  0
    4.5669   -1.1780    2.3114 C   0  0  0  0  0  0  0  0  0  0  0  0
    3.6145    1.3454    1.4606 C   0  0  0  0  0  0  0  0  0  0  0  0
    3.7548   -1.0691    1.1801 C   0  0  0  0  0  0  0  0  0  0  0  0
    2.1248   -2.2076   -3.6701 C   0  0  0  0  0  0  0  0  0  0  0  0
    2.3418   -5.3890    0.9235 C   0  0  0  0  0  0  0  0  0  0  0  0
    1.4914   -1.0819   -3.1436 C   0  0  0  0  0  0  0  0  0  0  0  0
    3.2813    0.1854    0.7570 C   0  0  0  0  0  0  0  0  0  0  0  0
    4.8812   -0.0175    2.9883 C   0  0  0  0  0  0  0  0  0  0  0  0
    4.4178    1.2105    2.5742 C   0  0  0  0  0  0  0  0  0  0  0  0
    3.3773   -7.6441    2.1981 C   0  0  0  0  0  0  0  0  0  0  0  0
    1.4051   -3.3870   -3.8621 C   0  0  0  0  0  0  0  0  0  0  0  0
    3.4092   -2.2819    0.4501 C   0  0  0  0  0  0  0  0  0  0  0  0
    3.5560   -2.1549   -4.0291 C   0  0  0  0  0  0  0  0  0  0  0  0
    5.6269    1.4931    4.3462 C   0  0  0  0  0  0  0  0  0  0  0  0
    4.2862    1.1434   -1.8627 C   0  0  0  0  0  0  0  0  0  0  0  0
    3.5806   -8.9036    4.2052 C   0  0  0  0  0  0  0  0  0  0  0  0
    1.1891   -5.6569   -4.5376 C   0  0  0  0  0  0  0  0  0  0  0  0
    1.7839   -4.1756    0.2375 C   0  0  0  0  0  0  0  0  0  0  0  0
    2.2396    0.2004   -2.9272 C   0  0  0  0  0  0  0  0  0  0  0  0
    2.4102    0.3067   -0.4519 C   0  0  0  0  0  0  0  0  0  0  0  0
    2.2461   -2.9494    0.8469 N   0  0  0  0  0  0  0  0  0  0  0  0
    3.1554    0.1552   -1.7304 N   0  3  2  0  0  0  0  0  0  0  0  0
    3.8783   -1.7995   -5.2219 O   0  5  0  0  0  0  0  0  0  0  0  0
    4.1413   -2.6950   -0.4647 O   0  0  0  0  0  0  0  0  0  0  0  0
    4.4263   -2.4667   -3.1356 O   0  0  0  0  0  0  0  0  0  0  0  0
    5.6554    0.0716    4.1038 O   0  0  0  0  0  0  0  0  0  0  0  0
    4.8437    2.2219    3.3788 O   0  0  0  0  0  0  0  0  0  0  0  0
    3.8816   -8.7451    2.8195 O   0  0  0  0  0  0  0  0  0  0  0  0
    2.0039   -4.4978   -4.3771 O   0  0  0  0  0  0  0  0  0  0  0  0
   -1.6345   -2.3568   -2.7393 H   0  0  0  0  0  0  0  0  0  0  0  0
   -0.3637   -0.2636   -2.3981 H   0  0  0  0  0  0  0  0  0  0  0  0
    3.3212   -6.1416   -0.8484 H   0  0  0  0  0  0  0  0  0  0  0  0
    1.4829   -4.8986    2.8439 H   0  0  0  0  0  0  0  0  0  0  0  0
   -0.5154   -4.3558   -3.6745 H   0  0  0  0  0  0  0  0  0  0  0  0
    4.2363   -8.1362    0.2802 H   0  0  0  0  0  0  0  0  0  0  0  0
    2.3991   -6.8940    3.9696 H   0  0  0  0  0  0  0  0  0  0  0  0
    4.9401   -2.1388    2.6503 H   0  0  0  0  0  0  0  0  0  0  0  0
    3.2552    2.3195    1.1462 H   0  0  0  0  0  0  0  0  0  0  0  0
    5.2077    1.6710    5.3430 H   0  0  0  0  0  0  0  0  0  0  0  0
    6.6547    1.8734    4.3237 H   0  0  0  0  0  0  0  0  0  0  0  0
    3.8549    2.1461   -1.8640 H   0  0  0  0  0  0  0  0  0  0  0  0
    4.9533    1.0040   -1.0099 H   0  0  0  0  0  0  0  0  0  0  0  0
    4.8021    0.9370   -2.8024 H   0  0  0  0  0  0  0  0  0  0  0  0
    4.0431   -9.8213    4.5766 H   0  0  0  0  0  0  0  0  0  0  0  0
    2.4970   -8.9483    4.3408 H   0  0  0  0  0  0  0  0  0  0  0  0
    3.9797   -8.0484    4.7557 H   0  0  0  0  0  0  0  0  0  0  0  0
    1.7883   -6.4692   -4.9564 H   0  0  0  0  0  0  0  0  0  0  0  0
    0.3529   -5.4264   -5.2025 H   0  0  0  0  0  0  0  0  0  0  0  0
    0.8032   -5.9582   -3.5609 H   0  0  0  0  0  0  0  0  0  0  0  0
    2.0776   -4.1595   -0.8178 H   0  0  0  0  0  0  0  0  0  0  0  0
    0.6893   -4.1740    0.2704 H   0  0  0  0  0  0  0  0  0  0  0  0
    2.8649    0.4449   -3.7926 H   0  0  0  0  0  0  0  0  0  0  0  0
    1.5517    1.0373   -2.7654 H   0  0  0  0  0  0  0  0  0  0  0  0
    1.6238   -0.4584   -0.4582 H   0  0  0  0  0  0  0  0  0  0  0  0
    1.9171    1.2860   -0.4940 H   0  0  0  0  0  0  0  0  0  0  0  0
    1.7196   -2.6020    1.6418 H   0  0  0  0  0  0  0  0  0  0  0  0
    3.5898   -0.7823   -1.7318 H   0  0  0  0  0  0  0  0  0  0  0  0
  1  2  1  0  0  0  0
  1  5  2  0  0  0  0
  2 13  2  0  0  0  0
  3  6  1  0  0  0  0
  3 12  2  0  0  0  0
  4  7  2  0  0  0  0
  4 12  1  0  0  0  0
  5 18  1  0  0  0  0
  6 17  2  0  0  0  0
  7 17  1  0  0  0  0
  8 10  2  0  0  0  0
  8 15  1  0  0  0  0
  9 14  2  0  0  0  0
  9 16  1  0  0  0  0
 10 14  1  0  0  0  0
 10 19  1  0  0  0  0
 11 13  1  0  0  0  0
 11 18  2  0  0  0  0
 11 20  1  0  0  0  0
 12 25  1  0  0  0  0
 13 26  1  0  0  0  0
 14 27  1  0  0  0  0
 15 16  2  0  0  0  0
 15 33  1  0  0  0  0
 16 34  1  0  0  0  0
 17 35  1  0  0  0  0
 18 36  1  0  0  0  0
 19 28  1  0  0  0  0
 19 31  2  0  0  0  0
 20 30  1  0  0  0  0
 20 32  2  0  0  0  0
 21 33  1  0  0  0  0
 21 34  1  0  0  0  0
 22 29  1  0  0  0  0
 23 35  1  0  0  0  0
 24 36  1  0  0  0  0
 25 28  1  0  0  0  0
 26 29  1  0  0  0  0
 27 29  1  0  0  0  0
  1 37  1  0  0  0  0
  2 38  1  0  0  0  0
  3 39  1  0  0  0  0
  4 40  1  0  0  0  0
  5 41  1  0  0  0  0
  6 42  1  0  0  0  0
  7 43  1  0  0  0  0
  8 44  1  0  0  0  0
  9 45  1  0  0  0  0
 21 46  1  0  0  0  0
 21 47  1  0  0  0  0
 22 48  1  0  0  0  0
 22 49  1  0  0  0  0
 22 50  1  0  0  0  0
 23 51  1  0  0  0  0
 23 52  1  0  0  0  0
 23 53  1  0  0  0  0
 24 54  1  0  0  0  0
 24 55  1  0  0  0  0
 24 56  1  0  0  0  0
 25 57  1  0  0  0  0
 25 58  1  0  0  0  0
 26 59  1  0  0  0  0
 26 60  1  0  0  0  0
 27 61  1  0  0  0  0
 27 62  1  0  0  0  0
 28 63  1  0  0  0  0
 29 64  1  0  0  0  0
M  CHG  2  29   1  30  -1
M  END
$$$$
