AVX17479_0
  -OEChem-04011314533D

 24 25  0     0  0  0  0  0  0999 V2000
    2.0233   -2.4402    1.3044 C   0  0  0  0  0  0  0  0  0  0  0  0
    2.7392   -0.2481    0.5839 C   0  0  0  0  0  0  0  0  0  0  0  0
    0.9439   -1.8669    1.9764 C   0  0  0  0  0  0  0  0  0  0  0  0
    1.6598    0.3253    1.2559 C   0  0  0  0  0  0  0  0  0  0  0  0
    5.3626   -3.7419    1.6049 C   0  0  0  0  0  0  0  0  0  0  0  0
    2.9210   -1.6309    0.6081 C   0  0  0  0  0  0  0  0  0  0  0  0
    0.7621   -0.4841    1.9522 C   0  0  0  0  0  0  0  0  0  0  0  0
    5.2233   -2.6406    0.7943 C   0  0  0  0  0  0  0  0  0  0  0  0
    7.3469   -2.7180    2.0280 C   0  0  0  0  0  0  0  0  0  0  0  0
    4.0749   -2.2433   -0.1112 C   0  0  0  0  0  0  0  0  0  0  0  0
    6.5646   -3.7461    2.2769 N   0  3  0  0  0  0  0  0  0  0  0  0
    8.5456   -2.5299    2.5719 N   0  0  0  0  0  0  0  0  0  0  0  0
   -0.2760    0.0664    2.5953 F   0  0  0  0  0  0  0  0  0  0  0  0
    6.6217   -1.6453    0.9104 S   0  0  0  0  0  0  0  0  0  0  0  0
    2.1571   -3.5185    1.3296 H   0  0  0  0  0  0  0  0  0  0  0  0
    3.4334    0.3904    0.0438 H   0  0  0  0  0  0  0  0  0  0  0  0
    0.2446   -2.4968    2.5179 H   0  0  0  0  0  0  0  0  0  0  0  0
    1.5181    1.4018    1.2377 H   0  0  0  0  0  0  0  0  0  0  0  0
    4.6530   -4.5447    1.7429 H   0  0  0  0  0  0  0  0  0  0  0  0
    3.7480   -3.1300   -0.6827 H   0  0  0  0  0  0  0  0  0  0  0  0
    4.4547   -1.5572   -0.8888 H   0  0  0  0  0  0  0  0  0  0  0  0
    6.8584   -4.4740    2.9253 H   0  0  0  0  0  0  0  0  0  0  0  0
    8.9518   -3.1686    3.2877 H   0  0  0  0  0  0  0  0  0  0  0  0
    9.1243   -1.6824    2.3929 H   0  0  0  0  0  0  0  0  0  0  0  0
  1  3  2  0  0  0  0
  1  6  1  0  0  0  0
  2  4  1  0  0  0  0
  2  6  2  0  0  0  0
  3  7  1  0  0  0  0
  4  7  2  0  0  0  0
  5  8  2  0  0  0  0
  5 11  1  0  0  0  0
  6 10  1  0  0  0  0
  7 13  1  0  0  0  0
  8 10  1  0  0  0  0
  8 14  1  0  0  0  0
  9 11  2  0  0  0  0
  9 12  1  0  0  0  0
  9 14  1  0  0  0  0
  1 15  1  0  0  0  0
  2 16  1  0  0  0  0
  3 17  1  0  0  0  0
  4 18  1  0  0  0  0
  5 19  1  0  0  0  0
 10 20  1  0  0  0  0
 10 21  1  0  0  0  0
 11 22  1  0  0  0  0
 12 23  1  0  0  0  0
 12 24  1  0  0  0  0
M  CHG  1  11   1
M  END
$$$$
