AVX17375_0
  -OEChem-04011314533D

 38 41  0     1  0  0  0  0  0999 V2000
    2.2812    1.1728   -0.9445 C   0  0  0  0  0  0  0  0  0  0  0  0
    2.1152   -0.0863   -1.5408 C   0  0  0  0  0  0  0  0  0  0  0  0
    1.2883    1.7046   -0.1203 C   0  0  0  0  0  0  0  0  0  0  0  0
    0.9541   -0.8316   -1.3212 C   0  0  0  0  0  0  0  0  0  0  0  0
   -3.5483   -3.0234    1.1790 C   0  0  0  0  0  0  0  0  0  0  0  0
   -4.8415   -3.5499    1.1363 C   0  0  0  0  0  0  0  0  0  0  0  0
   -3.2593   -3.4263   -1.2047 C   0  0  0  0  0  0  0  0  0  0  0  0
    0.1458    0.9529    0.1025 C   0  0  0  0  0  0  0  0  0  0  0  0
   -0.0234   -0.3057   -0.4903 C   0  0  0  0  0  0  0  0  0  0  0  0
   -2.7618   -2.9619    0.0152 C   0  0  0  0  0  0  0  0  0  0  0  0
   -5.3090   -4.0017   -0.0807 C   0  0  0  0  0  0  0  0  0  0  0  0
   -4.5392   -3.9415   -1.2199 C   0  0  0  0  0  0  0  0  0  0  0  0
   -2.4567   -3.3722   -2.4371 C   0  0  0  0  0  0  0  0  0  0  0  0
   -1.0525    1.3347    0.9190 C   0  0  0  0  0  0  0  0  0  0  0  0
   -6.4519   -4.8165   -1.7275 C   0  0  0  0  0  0  0  0  0  0  0  0
   -1.3674   -0.8830   -0.1311 C   0  0  2  0  0  0  0  0  0  0  0  0
   -1.7320   -0.0326    1.1107 C   0  0  1  0  0  0  0  0  0  0  0  0
   -1.3739   -2.3856    0.1123 C   0  0  0  0  0  0  0  0  0  0  0  0
   -2.5307   -2.3223   -3.1795 O   0  5  0  0  0  0  0  0  0  0  0  0
   -1.7067   -4.3766   -2.7331 O   0  0  0  0  0  0  0  0  0  0  0  0
   -6.5359   -4.5424   -0.3140 O   0  0  0  0  0  0  0  0  0  0  0  0
   -5.1876   -4.4371   -2.3088 O   0  0  0  0  0  0  0  0  0  0  0  0
   -1.2353   -0.6403    2.3037 O   0  0  0  0  0  0  0  0  0  0  0  0
    3.1883    1.7409   -1.1319 H   0  0  0  0  0  0  0  0  0  0  0  0
    2.8953   -0.4814   -2.1859 H   0  0  0  0  0  0  0  0  0  0  0  0
    1.4130    2.6827    0.3318 H   0  0  0  0  0  0  0  0  0  0  0  0
    0.8292   -1.7967   -1.8000 H   0  0  0  0  0  0  0  0  0  0  0  0
   -3.1537   -2.6593    2.1246 H   0  0  0  0  0  0  0  0  0  0  0  0
   -5.4512   -3.5991    2.0312 H   0  0  0  0  0  0  0  0  0  0  0  0
   -0.7632    1.7944    1.8687 H   0  0  0  0  0  0  0  0  0  0  0  0
   -1.6848    2.0132    0.3371 H   0  0  0  0  0  0  0  0  0  0  0  0
   -6.6027   -5.8905   -1.8861 H   0  0  0  0  0  0  0  0  0  0  0  0
   -7.2518   -4.2692   -2.2393 H   0  0  0  0  0  0  0  0  0  0  0  0
   -2.0602   -0.6393   -0.9444 H   0  0  0  0  0  0  0  0  0  0  0  0
   -2.8161    0.0710    1.2272 H   0  0  0  0  0  0  0  0  0  0  0  0
   -0.9520   -2.6014    1.1010 H   0  0  0  0  0  0  0  0  0  0  0  0
   -0.7165   -2.8801   -0.6126 H   0  0  0  0  0  0  0  0  0  0  0  0
   -1.4541   -0.0369    3.0296 H   0  0  0  0  0  0  0  0  0  0  0  0
  1  2  1  0  0  0  0
  1  3  2  0  0  0  0
  2  4  2  0  0  0  0
  3  8  1  0  0  0  0
  4  9  1  0  0  0  0
  5  6  2  0  0  0  0
  5 10  1  0  0  0  0
  6 11  1  0  0  0  0
  7 10  2  0  0  0  0
  7 12  1  0  0  0  0
  7 13  1  0  0  0  0
  8  9  2  0  0  0  0
  8 14  1  0  0  0  0
  9 16  1  0  0  0  0
 10 18  1  0  0  0  0
 11 12  2  0  0  0  0
 11 21  1  0  0  0  0
 12 22  1  0  0  0  0
 13 19  1  0  0  0  0
 13 20  2  0  0  0  0
 14 17  1  0  0  0  0
 15 21  1  0  0  0  0
 15 22  1  0  0  0  0
 16 17  1  0  0  0  0
 16 18  1  0  0  0  0
 17 23  1  0  0  0  0
  1 24  1  0  0  0  0
  2 25  1  0  0  0  0
  3 26  1  0  0  0  0
  4 27  1  0  0  0  0
  5 28  1  0  0  0  0
  6 29  1  0  0  0  0
 14 30  1  0  0  0  0
 14 31  1  0  0  0  0
 15 32  1  0  0  0  0
 15 33  1  0  0  0  0
 16 34  1  0  0  0  0
 17 35  1  0  0  0  0
 18 36  1  0  0  0  0
 18 37  1  0  0  0  0
 23 38  1  0  0  0  0
M  CHG  1  19  -1
M  END
$$$$
