@<TRIPOS>MOLECULE
AVX17544_1
   38    40     0     0     0
SMALL
NO_CHARGES

@<TRIPOS>ATOM
      1 C1          0.3090    1.4639    1.5082 C.ar      1 MOL         0.0000
      2 C2         -0.7690    0.9545    2.2368 C.ar      1 MOL         0.0000
      3 C3         -0.2636    0.0527   -0.3933 C.ar      1 MOL         0.0000
      4 C4          0.5717    1.0274    0.1908 C.ar      1 MOL         0.0000
      5 C5         -1.5720    0.0138    1.6267 C.ar      1 MOL         0.0000
      6 C6         -1.3332   -0.4268    0.3450 C.ar      1 MOL         0.0000
      7 C7         -0.0412   -0.4429   -1.7718 C.2       1 MOL         0.0000
      8 C8          1.7233    1.6289   -0.5770 C.3       1 MOL         0.0000
      9 C9          2.4019   -0.7645   -1.2452 C.3       1 MOL         0.0000
     10 C10        -3.0812   -1.4499    1.1199 C.3       1 MOL         0.0000
     11 C11         2.8735    0.6426   -0.8534 C.3       1 MOL         0.0000
     12 C12         5.8269   -0.1638   -1.0653 C.3       1 MOL         0.0000
     13 C13         5.8118   -0.5367    1.4094 C.3       1 MOL         0.0000
     14 C14         3.8268    0.5537    0.3416 C.3       1 MOL         0.0000
     15 C15         4.9485   -0.4760    0.1470 C.3       1 MOL         0.0000
     16 N1          1.2583   -0.7485   -2.1414 N.am      1 MOL         0.0000
     17 O1         -1.0024   -0.5612   -2.5279 O.2       1 MOL         0.0000
     18 O2         -2.6592   -0.5820    2.1892 O.3       1 MOL         0.0000
     19 O3         -2.2427   -1.3616   -0.0484 O.3       1 MOL         0.0000
     20 H1          0.9469    2.2130    1.9719 H         1 MOL         0.0000
     21 H2         -0.9646    1.2955    3.2473 H         1 MOL         0.0000
     22 H3          1.3303    2.0094   -1.5299 H         1 MOL         0.0000
     23 H4          2.1081    2.5172   -0.0597 H         1 MOL         0.0000
     24 H5          3.2092   -1.3017   -1.7557 H         1 MOL         0.0000
     25 H6          2.1293   -1.3549   -0.3620 H         1 MOL         0.0000
     26 H7         -3.0708   -2.4843    1.4821 H         1 MOL         0.0000
     27 H8         -4.1068   -1.1864    0.8370 H         1 MOL         0.0000
     28 H9          3.4472    1.0568   -1.6938 H         1 MOL         0.0000
     29 H10         6.3018    0.8184   -0.9692 H         1 MOL         0.0000
     30 H11         5.2449   -0.1724   -1.9918 H         1 MOL         0.0000
     31 H12         6.6191   -0.9126   -1.1736 H         1 MOL         0.0000
     32 H13         6.2896    0.4281    1.6111 H         1 MOL         0.0000
     33 H14         6.5997   -1.2903    1.3065 H         1 MOL         0.0000
     34 H15         5.2072   -0.8050    2.2822 H         1 MOL         0.0000
     35 H16         4.2455    1.5468    0.5286 H         1 MOL         0.0000
     36 H17         3.2327    0.2845    1.2203 H         1 MOL         0.0000
     37 H18         4.4995   -1.4664   -0.0008 H         1 MOL         0.0000
     38 H19         1.4249   -0.9798   -3.1160 H         1 MOL         0.0000
@<TRIPOS>BOND
     1    1    2 ar
     2    1    4 ar
     3    2    5 ar
     4    3    4 ar
     5    3    6 ar
     6    3    7 1
     7    4    8 1
     8    5    6 ar
     9    5   18 1
    10    6   19 1
    11    7   16 am
    12    7   17 2
    13    8   11 1
    14    9   11 1
    15    9   16 1
    16   10   18 1
    17   10   19 1
    18   11   14 1
    19   12   15 1
    20   13   15 1
    21   14   15 1
    22    1   20 1
    23    2   21 1
    24    8   22 1
    25    8   23 1
    26    9   24 1
    27    9   25 1
    28   10   26 1
    29   10   27 1
    30   11   28 1
    31   12   29 1
    32   12   30 1
    33   12   31 1
    34   13   32 1
    35   13   33 1
    36   13   34 1
    37   14   35 1
    38   14   36 1
    39   15   37 1
    40   16   38 1
