@<TRIPOS>MOLECULE
AVX17261_1
   26    27     0     0     0
SMALL
NO_CHARGES

@<TRIPOS>ATOM
      1 C1          2.5591   -1.3257    1.7260 C.ar      1 MOL         0.0000
      2 C2          1.4707   -2.1378    2.0139 C.ar      1 MOL         0.0000
      3 C3          2.3944   -0.2097    0.9048 C.ar      1 MOL         0.0000
      4 C4          0.2204   -1.8287    1.4840 C.ar      1 MOL         0.0000
      5 C5          1.1428    0.1165    0.3445 C.ar      1 MOL         0.0000
      6 C6          0.0440   -0.7026    0.6604 C.ar      1 MOL         0.0000
      7 C7         -1.1043    1.1016   -1.6860 C.2       1 MOL         0.0000
      8 C8          1.0744    1.3715   -0.4846 C.3       1 MOL         0.0000
      9 C9         -1.7218    0.8488   -0.3212 C.3       1 MOL         0.0000
     10 C10        -3.2475    0.8883   -0.3922 C.3       1 MOL         0.0000
     11 N1          0.2643    1.2581   -1.6790 N.am      1 MOL         0.0000
     12 N2         -1.3311   -0.5161    0.1525 N.4       1 MOL         0.0000
     13 O1         -1.7655    1.1357   -2.7232 O.2       1 MOL         0.0000
     14 H1          3.5363   -1.5563    2.1400 H         1 MOL         0.0000
     15 H2          1.5928   -3.0085    2.6509 H         1 MOL         0.0000
     16 H3          3.2631    0.4143    0.7034 H         1 MOL         0.0000
     17 H4         -0.6212   -2.4770    1.7189 H         1 MOL         0.0000
     18 H5          0.7000    2.2001    0.1263 H         1 MOL         0.0000
     19 H6          2.0740    1.6542   -0.8348 H         1 MOL         0.0000
     20 H7         -1.3957    1.5824    0.4230 H         1 MOL         0.0000
     21 H8         -3.6009    0.1667   -1.1266 H         1 MOL         0.0000
     22 H9         -3.5771    1.8842   -0.6828 H         1 MOL         0.0000
     23 H10        -3.6681    0.6425    0.5813 H         1 MOL         0.0000
     24 H11         0.7389    1.2967   -2.5760 H         1 MOL         0.0000
     25 H12        -1.4762   -1.2081   -0.5970 H         1 MOL         0.0000
     26 H13        -1.9642   -0.7913    0.9177 H         1 MOL         0.0000
@<TRIPOS>BOND
     1    1    2 ar
     2    1    3 ar
     3    2    4 ar
     4    3    5 ar
     5    4    6 ar
     6    5    6 ar
     7    5    8 1
     8    6   12 1
     9    7    9 1
    10    7   11 am
    11    7   13 2
    12    8   11 1
    13    9   10 1
    14    9   12 1
    15    1   14 1
    16    2   15 1
    17    3   16 1
    18    4   17 1
    19    8   18 1
    20    8   19 1
    21    9   20 1
    22   10   21 1
    23   10   22 1
    24   10   23 1
    25   11   24 1
    26   12   25 1
    27   12   26 1
