@<TRIPOS>MOLECULE
AVX101119_1
   64    67     0     0     0
SMALL
NO_CHARGES

@<TRIPOS>ATOM
      1 C1         -0.5813   -2.3148   -3.0009 C.ar      1 MOL         0.0000
      2 C2          0.1383   -1.1355   -2.8089 C.ar      1 MOL         0.0000
      3 C3          3.1162   -6.3014    0.2067 C.ar      1 MOL         0.0000
      4 C4          2.0851   -5.6043    2.2775 C.ar      1 MOL         0.0000
      5 C5          0.0521   -3.4406   -3.5274 C.ar      1 MOL         0.0000
      6 C6          3.6340   -7.4289    0.8441 C.ar      1 MOL         0.0000
      7 C7          2.6029   -6.7318    2.9149 C.ar      1 MOL         0.0000
      8 C8          4.5669   -1.1780    2.3114 C.ar      1 MOL         0.0000
      9 C9          3.6145    1.3454    1.4606 C.ar      1 MOL         0.0000
     10 C10         3.7548   -1.0691    1.1801 C.ar      1 MOL         0.0000
     11 C11         2.1248   -2.2076   -3.6701 C.ar      1 MOL         0.0000
     12 C12         2.3418   -5.3890    0.9235 C.ar      1 MOL         0.0000
     13 C13         1.4914   -1.0819   -3.1436 C.ar      1 MOL         0.0000
     14 C14         3.2813    0.1854    0.7570 C.ar      1 MOL         0.0000
     15 C15         4.8812   -0.0175    2.9883 C.ar      1 MOL         0.0000
     16 C16         4.4178    1.2105    2.5742 C.ar      1 MOL         0.0000
     17 C17         3.3773   -7.6441    2.1981 C.ar      1 MOL         0.0000
     18 C18         1.4051   -3.3870   -3.8621 C.ar      1 MOL         0.0000
     19 C19         3.4092   -2.2819    0.4501 C.2       1 MOL         0.0000
     20 C20         3.5560   -2.1549   -4.0291 C.2       1 MOL         0.0000
     21 C21         5.6269    1.4931    4.3462 C.3       1 MOL         0.0000
     22 C22         4.2862    1.1434   -1.8627 C.3       1 MOL         0.0000
     23 C23         3.5806   -8.9036    4.2052 C.3       1 MOL         0.0000
     24 C24         1.1891   -5.6569   -4.5376 C.3       1 MOL         0.0000
     25 C25         1.7839   -4.1756    0.2375 C.3       1 MOL         0.0000
     26 C26         2.2396    0.2004   -2.9272 C.3       1 MOL         0.0000
     27 C27         2.4102    0.3067   -0.4519 C.3       1 MOL         0.0000
     28 N1          2.2461   -2.9494    0.8469 N.am      1 MOL         0.0000
     29 N2          3.1554    0.1552   -1.7304 N.4       1 MOL         0.0000
     30 O1          3.8783   -1.7995   -5.2219 O.co2     1 MOL         0.0000
     31 O2          4.1413   -2.6950   -0.4647 O.2       1 MOL         0.0000
     32 O3          4.4263   -2.4667   -3.1356 O.co2     1 MOL         0.0000
     33 O4          5.6554    0.0716    4.1038 O.3       1 MOL         0.0000
     34 O5          4.8437    2.2219    3.3788 O.3       1 MOL         0.0000
     35 O6          3.8816   -8.7451    2.8195 O.3       1 MOL         0.0000
     36 O7          2.0039   -4.4978   -4.3771 O.3       1 MOL         0.0000
     37 H1         -1.6345   -2.3568   -2.7393 H         1 MOL         0.0000
     38 H2         -0.3637   -0.2636   -2.3981 H         1 MOL         0.0000
     39 H3          3.3212   -6.1416   -0.8484 H         1 MOL         0.0000
     40 H4          1.4829   -4.8986    2.8439 H         1 MOL         0.0000
     41 H5         -0.5154   -4.3558   -3.6745 H         1 MOL         0.0000
     42 H6          4.2363   -8.1362    0.2802 H         1 MOL         0.0000
     43 H7          2.3991   -6.8940    3.9696 H         1 MOL         0.0000
     44 H8          4.9401   -2.1388    2.6503 H         1 MOL         0.0000
     45 H9          3.2552    2.3195    1.1462 H         1 MOL         0.0000
     46 H10         5.2077    1.6710    5.3430 H         1 MOL         0.0000
     47 H11         6.6547    1.8734    4.3237 H         1 MOL         0.0000
     48 H12         3.8549    2.1461   -1.8640 H         1 MOL         0.0000
     49 H13         4.9533    1.0040   -1.0099 H         1 MOL         0.0000
     50 H14         4.8021    0.9370   -2.8024 H         1 MOL         0.0000
     51 H15         4.0431   -9.8213    4.5766 H         1 MOL         0.0000
     52 H16         2.4970   -8.9483    4.3408 H         1 MOL         0.0000
     53 H17         3.9797   -8.0484    4.7557 H         1 MOL         0.0000
     54 H18         1.7883   -6.4692   -4.9564 H         1 MOL         0.0000
     55 H19         0.3529   -5.4264   -5.2025 H         1 MOL         0.0000
     56 H20         0.8032   -5.9582   -3.5609 H         1 MOL         0.0000
     57 H21         2.0776   -4.1595   -0.8178 H         1 MOL         0.0000
     58 H22         0.6893   -4.1740    0.2704 H         1 MOL         0.0000
     59 H23         2.8649    0.4449   -3.7926 H         1 MOL         0.0000
     60 H24         1.5517    1.0373   -2.7654 H         1 MOL         0.0000
     61 H25         1.6238   -0.4584   -0.4582 H         1 MOL         0.0000
     62 H26         1.9171    1.2860   -0.4940 H         1 MOL         0.0000
     63 H27         1.7196   -2.6020    1.6418 H         1 MOL         0.0000
     64 H28         3.5898   -0.7823   -1.7318 H         1 MOL         0.0000
@<TRIPOS>BOND
     1    1    2 ar
     2    1    5 ar
     3    2   13 ar
     4    3    6 ar
     5    3   12 ar
     6    4    7 ar
     7    4   12 ar
     8    5   18 ar
     9    6   17 ar
    10    7   17 ar
    11    8   10 ar
    12    8   15 ar
    13    9   14 ar
    14    9   16 ar
    15   10   14 ar
    16   10   19 1
    17   11   13 ar
    18   11   18 ar
    19   11   20 1
    20   12   25 1
    21   13   26 1
    22   14   27 1
    23   15   16 ar
    24   15   33 1
    25   16   34 1
    26   17   35 1
    27   18   36 1
    28   19   28 am
    29   19   31 2
    30   20   30 1
    31   20   32 2
    32   21   33 1
    33   21   34 1
    34   22   29 1
    35   23   35 1
    36   24   36 1
    37   25   28 1
    38   26   29 1
    39   27   29 1
    40    1   37 1
    41    2   38 1
    42    3   39 1
    43    4   40 1
    44    5   41 1
    45    6   42 1
    46    7   43 1
    47    8   44 1
    48    9   45 1
    49   21   46 1
    50   21   47 1
    51   22   48 1
    52   22   49 1
    53   22   50 1
    54   23   51 1
    55   23   52 1
    56   23   53 1
    57   24   54 1
    58   24   55 1
    59   24   56 1
    60   25   57 1
    61   25   58 1
    62   26   59 1
    63   26   60 1
    64   27   61 1
    65   27   62 1
    66   28   63 1
    67   29   64 1
