@<TRIPOS>MOLECULE
AVX17266_0
   30    32     0     0     0
SMALL
NO_CHARGES

@<TRIPOS>ATOM
      1 C1         -0.2776    1.4993   -1.5215 C.ar      1 MOL         0.0000
      2 C2         -0.6352    0.3530   -0.8075 C.ar      1 MOL         0.0000
      3 C3         -1.0850    1.9654   -2.5620 C.ar      1 MOL         0.0000
      4 C4         -1.8037   -0.3394   -1.1257 C.ar      1 MOL         0.0000
      5 C5         -5.6540   -0.9451   -3.6259 C.2       1 MOL         0.0000
      6 C6         -2.2576    1.2801   -2.8901 C.ar      1 MOL         0.0000
      7 C7         -2.6058    0.1309   -2.1660 C.ar      1 MOL         0.0000
      8 C8         -5.3973   -1.8854   -2.6092 C.2       1 MOL         0.0000
      9 C9         -4.5952   -0.0764   -3.5493 C.2       1 MOL         0.0000
     10 C10        -3.1262    1.7710   -3.9997 C.2       1 MOL         0.0000
     11 C11        -6.2169   -3.0532   -2.2434 C.3       1 MOL         0.0000
     12 C12        -7.2878   -2.7806   -1.1749 C.3       1 MOL         0.0000
     13 N1         -4.2673   -1.6348   -1.9399 N.2       1 MOL         0.0000
     14 N2         -3.7911   -0.5194   -2.5332 N.pl3     1 MOL         0.0000
     15 N3         -4.2780    1.0456   -4.2744 N.am      1 MOL         0.0000
     16 N4         -6.6442   -2.3584    0.0936 N.4       1 MOL         0.0000
     17 O1         -2.8106    2.7789   -4.6274 O.2       1 MOL         0.0000
     18 H1          0.6340    2.0319   -1.2654 H         1 MOL         0.0000
     19 H2         -0.0008    0.0007    0.0009 H         1 MOL         0.0000
     20 H3         -0.7833    2.8596   -3.0999 H         1 MOL         0.0000
     21 H4         -2.0607   -1.2272   -0.5558 H         1 MOL         0.0000
     22 H5         -6.4859   -0.9059   -4.3144 H         1 MOL         0.0000
     23 H6         -6.7423   -3.4408   -3.1381 H         1 MOL         0.0000
     24 H7         -5.5916   -3.9027   -1.9045 H         1 MOL         0.0000
     25 H8         -7.8658   -3.6798   -0.9419 H         1 MOL         0.0000
     26 H9         -7.9701   -1.9773   -1.4686 H         1 MOL         0.0000
     27 H10        -4.8942    1.3491   -5.0219 H         1 MOL         0.0000
     28 H11        -7.3286   -1.9344    0.7287 H         1 MOL         0.0000
     29 H12        -5.9062   -1.6681   -0.0824 H         1 MOL         0.0000
     30 H13        -6.2203   -3.1592    0.5740 H         1 MOL         0.0000
@<TRIPOS>BOND
     1    1    2 ar
     2    1    3 ar
     3    2    4 ar
     4    3    6 ar
     5    4    7 ar
     6    5    8 1
     7    5    9 2
     8    6    7 ar
     9    6   10 1
    10    7   14 1
    11    8   11 1
    12    8   13 2
    13    9   14 1
    14    9   15 1
    15   10   15 am
    16   10   17 2
    17   11   12 1
    18   12   16 1
    19   13   14 1
    20    1   18 1
    21    2   19 1
    22    3   20 1
    23    4   21 1
    24    5   22 1
    25   11   23 1
    26   11   24 1
    27   12   25 1
    28   12   26 1
    29   15   27 1
    30   16   28 1
    31   16   29 1
    32   16   30 1
