@<TRIPOS>MOLECULE
AVX101124_0
   57    60     0     0     0
SMALL
NO_CHARGES

@<TRIPOS>ATOM
      1 C1          2.6138   -0.5418   -3.0073 C.ar      1 MOL         0.0000
      2 C2          1.4909   -1.3596   -3.1976 C.ar      1 MOL         0.0000
      3 C3          2.7287    0.2556   -1.8656 C.ar      1 MOL         0.0000
      4 C4          1.8284    3.6706    2.1554 C.ar      1 MOL         0.0000
      5 C5          0.4686   -1.3912   -2.2482 C.ar      1 MOL         0.0000
      6 C6          1.6199    4.3939    3.3321 C.ar      1 MOL         0.0000
      7 C7          1.7073    0.2221   -0.9263 C.ar      1 MOL         0.0000
      8 C8          2.2974    2.3459    2.2031 C.ar      1 MOL         0.0000
      9 C9          2.5634    1.7294    3.4281 C.ar      1 MOL         0.0000
     10 C10         0.5861   -0.5906   -1.1214 C.ar      1 MOL         0.0000
     11 C11         1.8901    3.7620    4.5285 C.ar      1 MOL         0.0000
     12 C12         2.3491    2.4654    4.5753 C.ar      1 MOL         0.0000
     13 C13         1.5493    0.9442    0.3347 C.2       1 MOL         0.0000
     14 C14         2.4934    1.6513    0.9658 C.2       1 MOL         0.0000
     15 C15         3.0526    0.3422    3.5158 C.2       1 MOL         0.0000
     16 C16        -1.7542    2.2282    1.3428 C.2       1 MOL         0.0000
     17 C17        -0.3706   -0.5185    0.0316 C.3       1 MOL         0.0000
     18 C18         2.1680    3.2047    6.6007 C.3       1 MOL         0.0000
     19 C19         0.1425    0.6943    0.8317 C.3       1 MOL         0.0000
     20 C20        -2.4099    3.4977    0.8241 C.3       1 MOL         0.0000
     21 C21        -3.0895    4.3285    1.9116 C.3       1 MOL         0.0000
     22 C22        -2.1091    4.7785    3.0005 C.3       1 MOL         0.0000
     23 C23        -2.8248    5.5869    4.0872 C.3       1 MOL         0.0000
     24 C24        -1.8996    6.0530    5.2046 C.3       1 MOL         0.0000
     25 N1         -0.6538    1.8731    0.5762 N.am      1 MOL         0.0000
     26 N2         -2.6542    6.8184    6.2246 N.4       1 MOL         0.0000
     27 O1          2.1931   -0.6124    3.5965 O.co2     1 MOL         0.0000
     28 O2          4.3226    0.1331    3.5091 O.co2     1 MOL         0.0000
     29 O3         -2.1765    1.5996    2.3094 O.2       1 MOL         0.0000
     30 O4          1.7469    4.3046    5.7683 O.3       1 MOL         0.0000
     31 O5          2.5510    2.0341    5.8501 O.3       1 MOL         0.0000
     32 H1          3.4020   -0.5290   -3.7551 H         1 MOL         0.0000
     33 H2          1.4197   -1.9764   -4.0894 H         1 MOL         0.0000
     34 H3          3.6024    0.8855   -1.7341 H         1 MOL         0.0000
     35 H4          1.6205    4.1501    1.2011 H         1 MOL         0.0000
     36 H5         -0.3944   -2.0330   -2.3913 H         1 MOL         0.0000
     37 H6          1.2586    5.4156    3.2989 H         1 MOL         0.0000
     38 H7          3.4692    1.7230    0.4887 H         1 MOL         0.0000
     39 H8         -1.4059   -0.3987   -0.3040 H         1 MOL         0.0000
     40 H9         -0.2819   -1.4355    0.6254 H         1 MOL         0.0000
     41 H10         3.0224    3.5293    7.2058 H         1 MOL         0.0000
     42 H11         1.3432    2.9370    7.2711 H         1 MOL         0.0000
     43 H12         0.1008    0.4990    1.9084 H         1 MOL         0.0000
     44 H13        -1.6635    4.1022    0.2956 H         1 MOL         0.0000
     45 H14        -3.1648    3.1896    0.0902 H         1 MOL         0.0000
     46 H15        -3.5301    5.2173    1.4433 H         1 MOL         0.0000
     47 H16        -3.9143    3.7638    2.3625 H         1 MOL         0.0000
     48 H17        -1.3189    5.3911    2.5497 H         1 MOL         0.0000
     49 H18        -1.6250    3.9026    3.4447 H         1 MOL         0.0000
     50 H19        -3.2801    6.4741    3.6302 H         1 MOL         0.0000
     51 H20        -3.6454    4.9927    4.5079 H         1 MOL         0.0000
     52 H21        -1.4200    5.2158    5.7201 H         1 MOL         0.0000
     53 H22        -1.1305    6.7273    4.8163 H         1 MOL         0.0000
     54 H23        -0.3950    2.4710   -0.2032 H         1 MOL         0.0000
     55 H24        -3.6656    6.6893    6.1088 H         1 MOL         0.0000
     56 H25        -2.4550    7.8227    6.1532 H         1 MOL         0.0000
     57 H26        -2.4047    6.5146    7.1727 H         1 MOL         0.0000
@<TRIPOS>BOND
     1    1    2 ar
     2    1    3 ar
     3    2    5 ar
     4    3    7 ar
     5    4    6 ar
     6    4    8 ar
     7    5   10 ar
     8    6   11 ar
     9    7   10 ar
    10    7   13 1
    11    8    9 ar
    12    8   14 1
    13    9   12 ar
    14    9   15 1
    15   10   17 1
    16   11   12 ar
    17   11   30 1
    18   12   31 1
    19   13   14 2
    20   13   19 1
    21   15   27 1
    22   15   28 2
    23   16   20 1
    24   16   25 am
    25   16   29 2
    26   17   19 1
    27   18   30 1
    28   18   31 1
    29   19   25 1
    30   20   21 1
    31   21   22 1
    32   22   23 1
    33   23   24 1
    34   24   26 1
    35    1   32 1
    36    2   33 1
    37    3   34 1
    38    4   35 1
    39    5   36 1
    40    6   37 1
    41   14   38 1
    42   17   39 1
    43   17   40 1
    44   18   41 1
    45   18   42 1
    46   19   43 1
    47   20   44 1
    48   20   45 1
    49   21   46 1
    50   21   47 1
    51   22   48 1
    52   22   49 1
    53   23   50 1
    54   23   51 1
    55   24   52 1
    56   24   53 1
    57   25   54 1
    58   26   55 1
    59   26   56 1
    60   26   57 1
