AVX17587_1
  -OEChem-04011314543D

 59 62  0     1  0  0  0  0  0999 V2000
    1.8121    1.8090   -1.1916 C   0  0  0  0  0  0  0  0  0  0  0  0
    1.2445    1.0062   -2.1923 C   0  0  0  0  0  0  0  0  0  0  0  0
    1.4139    1.6723    0.1391 C   0  0  0  0  0  0  0  0  0  0  0  0
    0.2716    0.0548   -1.8762 C   0  0  0  0  0  0  0  0  0  0  0  0
   -3.5248   -2.9183    0.0661 C   0  0  0  0  0  0  0  0  0  0  0  0
   -4.5129   -3.6969    0.6734 C   0  0  0  0  0  0  0  0  0  0  0  0
   -1.7900   -4.4446    0.8335 C   0  0  0  0  0  0  0  0  0  0  0  0
    0.4574    0.7177    0.4451 C   0  0  0  0  0  0  0  0  0  0  0  0
   -0.1106   -0.0875   -0.5510 C   0  0  0  0  0  0  0  0  0  0  0  0
   -2.1712   -3.2900    0.1456 C   0  0  0  0  0  0  0  0  0  0  0  0
   -4.1100   -4.8319    1.3465 C   0  0  0  0  0  0  0  0  0  0  0  0
   -2.7851   -5.1959    1.4243 C   0  0  0  0  0  0  0  0  0  0  0  0
   -0.3803   -4.8559    0.9304 C   0  0  0  0  0  0  0  0  0  0  0  0
   -1.7701   -1.7970    3.6498 C   0  0  0  0  0  0  0  0  0  0  0  0
   -0.1388    0.4223    1.7852 C   0  0  0  0  0  0  0  0  0  0  0  0
   -3.9654   -6.6632    2.4899 C   0  0  0  0  0  0  0  0  0  0  0  0
   -1.1518   -1.0021    0.0354 C   0  0  2  0  0  0  0  0  0  0  0  0
   -0.7658   -0.9617    1.5347 C   0  0  2  0  0  0  0  0  0  0  0  0
   -1.1435   -2.4184   -0.5254 C   0  0  0  0  0  0  0  0  0  0  0  0
   -3.1245   -1.9619    4.3199 C   0  0  0  0  0  0  0  0  0  0  0  0
   -3.0523   -2.6020    5.7055 C   0  0  0  0  0  0  0  0  0  0  0  0
   -4.4333   -2.7468    6.3542 C   0  0  0  0  0  0  0  0  0  0  0  0
   -4.3246   -3.3678    7.7504 C   0  0  0  0  0  0  0  0  0  0  0  0
   -5.6690   -3.5266    8.4498 C   0  0  0  0  0  0  0  0  0  0  0  0
   -1.8889   -1.2126    2.3971 N   0  0  0  0  0  0  0  0  0  0  0  0
   -6.5659   -4.4089    7.6670 N   0  3  0  0  0  0  0  0  0  0  0  0
    0.1031   -5.6312    0.0226 O   0  5  0  0  0  0  0  0  0  0  0  0
    0.3239   -4.4274    1.9200 O   0  0  0  0  0  0  0  0  0  0  0  0
   -0.7165   -2.1628    4.1635 O   0  0  0  0  0  0  0  0  0  0  0  0
   -4.9255   -5.7076    1.9946 O   0  0  0  0  0  0  0  0  0  0  0  0
   -2.6052   -6.3448    2.1311 O   0  0  0  0  0  0  0  0  0  0  0  0
    2.5634    2.5477   -1.4572 H   0  0  0  0  0  0  0  0  0  0  0  0
    1.5604    1.1315   -3.2244 H   0  0  0  0  0  0  0  0  0  0  0  0
    1.8458    2.3010    0.9103 H   0  0  0  0  0  0  0  0  0  0  0  0
   -0.1719   -0.5499   -2.6597 H   0  0  0  0  0  0  0  0  0  0  0  0
   -3.8132   -2.0182   -0.4717 H   0  0  0  0  0  0  0  0  0  0  0  0
   -5.5577   -3.4138    0.6145 H   0  0  0  0  0  0  0  0  0  0  0  0
    0.6167    0.3767    2.5755 H   0  0  0  0  0  0  0  0  0  0  0  0
   -0.8902    1.1782    2.0386 H   0  0  0  0  0  0  0  0  0  0  0  0
   -4.0401   -6.7014    3.5828 H   0  0  0  0  0  0  0  0  0  0  0  0
   -4.2129   -7.6514    2.0852 H   0  0  0  0  0  0  0  0  0  0  0  0
   -2.1407   -0.5507   -0.1204 H   0  0  0  0  0  0  0  0  0  0  0  0
   -0.0171   -1.7371    1.7532 H   0  0  0  0  0  0  0  0  0  0  0  0
   -0.1470   -2.8572   -0.4016 H   0  0  0  0  0  0  0  0  0  0  0  0
   -1.3308   -2.3878   -1.6049 H   0  0  0  0  0  0  0  0  0  0  0  0
   -3.6221   -0.9868    4.3779 H   0  0  0  0  0  0  0  0  0  0  0  0
   -3.7283   -2.6021    3.6650 H   0  0  0  0  0  0  0  0  0  0  0  0
   -2.6033   -3.5977    5.6036 H   0  0  0  0  0  0  0  0  0  0  0  0
   -2.3920   -2.0201    6.3596 H   0  0  0  0  0  0  0  0  0  0  0  0
   -5.0694   -3.3779    5.7218 H   0  0  0  0  0  0  0  0  0  0  0  0
   -4.9144   -1.7653    6.4187 H   0  0  0  0  0  0  0  0  0  0  0  0
   -3.8665   -4.3608    7.6643 H   0  0  0  0  0  0  0  0  0  0  0  0
   -3.6520   -2.7629    8.3710 H   0  0  0  0  0  0  0  0  0  0  0  0
   -5.5674   -3.9714    9.4440 H   0  0  0  0  0  0  0  0  0  0  0  0
   -6.1787   -2.5623    8.5352 H   0  0  0  0  0  0  0  0  0  0  0  0
   -2.8149   -0.9491    2.0731 H   0  0  0  0  0  0  0  0  0  0  0  0
   -6.0437   -4.9192    6.9460 H   0  0  0  0  0  0  0  0  0  0  0  0
   -7.2998   -3.8654    7.1985 H   0  0  0  0  0  0  0  0  0  0  0  0
   -7.0237   -5.0997    8.2724 H   0  0  0  0  0  0  0  0  0  0  0  0
  1  2  1  0  0  0  0
  1  3  2  0  0  0  0
  2  4  2  0  0  0  0
  3  8  1  0  0  0  0
  4  9  1  0  0  0  0
  5  6  2  0  0  0  0
  5 10  1  0  0  0  0
  6 11  1  0  0  0  0
  7 10  2  0  0  0  0
  7 12  1  0  0  0  0
  7 13  1  0  0  0  0
  8  9  2  0  0  0  0
  8 15  1  0  0  0  0
  9 17  1  0  0  0  0
 10 19  1  0  0  0  0
 11 12  2  0  0  0  0
 11 30  1  0  0  0  0
 12 31  1  0  0  0  0
 13 27  1  0  0  0  0
 13 28  2  0  0  0  0
 14 20  1  0  0  0  0
 14 25  1  0  0  0  0
 14 29  2  0  0  0  0
 15 18  1  0  0  0  0
 16 30  1  0  0  0  0
 16 31  1  0  0  0  0
 17 18  1  0  0  0  0
 17 19  1  0  0  0  0
 18 25  1  0  0  0  0
 20 21  1  0  0  0  0
 21 22  1  0  0  0  0
 22 23  1  0  0  0  0
 23 24  1  0  0  0  0
 24 26  1  0  0  0  0
  1 32  1  0  0  0  0
  2 33  1  0  0  0  0
  3 34  1  0  0  0  0
  4 35  1  0  0  0  0
  5 36  1  0  0  0  0
  6 37  1  0  0  0  0
 15 38  1  0  0  0  0
 15 39  1  0  0  0  0
 16 40  1  0  0  0  0
 16 41  1  0  0  0  0
 17 42  1  0  0  0  0
 18 43  1  0  0  0  0
 19 44  1  0  0  0  0
 19 45  1  0  0  0  0
 20 46  1  0  0  0  0
 20 47  1  0  0  0  0
 21 48  1  0  0  0  0
 21 49  1  0  0  0  0
 22 50  1  0  0  0  0
 22 51  1  0  0  0  0
 23 52  1  0  0  0  0
 23 53  1  0  0  0  0
 24 54  1  0  0  0  0
 24 55  1  0  0  0  0
 25 56  1  0  0  0  0
 26 57  1  0  0  0  0
 26 58  1  0  0  0  0
 26 59  1  0  0  0  0
M  CHG  2  26   1  27  -1
M  END
$$$$
