@<TRIPOS>MOLECULE
AVX17679_0
   19    20     0     0     0
SMALL
NO_CHARGES

@<TRIPOS>ATOM
      1 C1         -1.2009    1.0896   -1.4147 C.ar      1 MOL         0.0000
      2 C2         -0.8799   -0.0285   -0.6380 C.ar      1 MOL         0.0000
      3 C3         -2.3265    1.0925   -2.2508 C.ar      1 MOL         0.0000
      4 C4         -1.6680   -1.1837   -0.6662 C.ar      1 MOL         0.0000
      5 C5         -3.1259   -0.0594   -2.2892 C.ar      1 MOL         0.0000
      6 C6         -2.7767   -1.1462   -1.5067 C.ar      1 MOL         0.0000
      7 C7         -4.2933   -0.4889   -2.9495 C.2       1 MOL         0.0000
      8 C8         -4.6092    0.0096   -5.3462 C.2       1 MOL         0.0000
      9 C9         -5.1131    0.2583   -3.9182 C.3       1 MOL         0.0000
     10 N1         -4.6417   -1.7335   -2.6097 N.2       1 MOL         0.0000
     11 O1         -4.6946   -1.1860   -5.7459 O.co2     1 MOL         0.0000
     12 O2         -4.1747    1.0319   -5.9486 O.co2     1 MOL         0.0000
     13 O3         -3.6797   -2.1469   -1.6963 O.3       1 MOL         0.0000
     14 H1         -0.5669    1.9717   -1.3695 H         1 MOL         0.0000
     15 H2         -0.0003    0.0006    0.0004 H         1 MOL         0.0000
     16 H3         -2.5635    1.9670   -2.8483 H         1 MOL         0.0000
     17 H4         -1.4271   -2.0548   -0.0692 H         1 MOL         0.0000
     18 H5         -6.1830   -0.0243   -3.8608 H         1 MOL         0.0000
     19 H6         -5.1004    1.3479   -3.7177 H         1 MOL         0.0000
@<TRIPOS>BOND
     1    1    2 ar
     2    1    3 ar
     3    2    4 ar
     4    3    5 ar
     5    4    6 ar
     6    5    6 ar
     7    5    7 1
     8    6   13 1
     9    7    9 1
    10    7   10 2
    11    8    9 1
    12    8   11 1
    13    8   12 2
    14   10   13 1
    15    1   14 1
    16    2   15 1
    17    3   16 1
    18    4   17 1
    19    9   18 1
    20    9   19 1
