@<TRIPOS>MOLECULE
AVX17375_1
   38    41     0     0     0
SMALL
NO_CHARGES

@<TRIPOS>ATOM
      1 C1          2.3687    1.2139   -0.5172 C.ar      1 MOL         0.0000
      2 C2          2.3964   -0.0723   -1.0778 C.ar      1 MOL         0.0000
      3 C3          1.2530    1.6549    0.1973 C.ar      1 MOL         0.0000
      4 C4          1.3094   -0.9362   -0.9302 C.ar      1 MOL         0.0000
      5 C5         -3.0800   -3.0396    2.0179 C.ar      1 MOL         0.0000
      6 C6         -4.1246   -3.9650    2.0795 C.ar      1 MOL         0.0000
      7 C7         -1.8452   -4.4711    0.4836 C.ar      1 MOL         0.0000
      8 C8          0.1745    0.7958    0.3290 C.ar      1 MOL         0.0000
      9 C9          0.2036   -0.4899   -0.2235 C.ar      1 MOL         0.0000
     10 C10        -1.9469   -3.2912    1.2245 C.ar      1 MOL         0.0000
     11 C11        -3.9996   -5.1221    1.3385 C.ar      1 MOL         0.0000
     12 C12        -2.8905   -5.3684    0.5618 C.ar      1 MOL         0.0000
     13 C13        -0.6704   -4.7576   -0.3552 C.2       1 MOL         0.0000
     14 C14        -1.1042    1.0375    1.0713 C.3       1 MOL         0.0000
     15 C15        -4.2497   -7.0410    0.3703 C.3       1 MOL         0.0000
     16 C16        -1.0641   -1.2425    0.0794 C.3       1 MOL         0.0000
     17 C17        -1.9958   -0.0886    0.5171 C.3       1 MOL         0.0000
     18 C18        -0.8479   -2.2635    1.1909 C.3       1 MOL         0.0000
     19 O1         -0.6772   -4.3721   -1.5841 O.co2     1 MOL         0.0000
     20 O2          0.3260   -5.3848    0.1669 O.co2     1 MOL         0.0000
     21 O3         -4.9101   -6.1314    1.2740 O.3       1 MOL         0.0000
     22 O4         -2.9677   -6.5627   -0.0860 O.3       1 MOL         0.0000
     23 O5         -2.6936    0.3909   -0.6363 O.3       1 MOL         0.0000
     24 H1          3.2263    1.8704   -0.6377 H         1 MOL         0.0000
     25 H2          3.2749   -0.3995   -1.6274 H         1 MOL         0.0000
     26 H3          1.2373    2.6463    0.6368 H         1 MOL         0.0000
     27 H4          1.3364   -1.9325   -1.3584 H         1 MOL         0.0000
     28 H5         -3.1515   -2.1184    2.5913 H         1 MOL         0.0000
     29 H6         -5.0000   -3.7749    2.6900 H         1 MOL         0.0000
     30 H7         -0.9283    0.9100    2.1441 H         1 MOL         0.0000
     31 H8         -1.5092    2.0318    0.8615 H         1 MOL         0.0000
     32 H9         -4.1047   -7.9997    0.8814 H         1 MOL         0.0000
     33 H10        -4.8951   -7.2004   -0.5011 H         1 MOL         0.0000
     34 H11        -1.4383   -1.7325   -0.8271 H         1 MOL         0.0000
     35 H12        -2.7549   -0.4015    1.2413 H         1 MOL         0.0000
     36 H13        -0.7909   -1.7485    2.1562 H         1 MOL         0.0000
     37 H14         0.1196   -2.7585    1.0514 H         1 MOL         0.0000
     38 H15        -3.2384   -0.3459   -0.9491 H         1 MOL         0.0000
@<TRIPOS>BOND
     1    1    2 ar
     2    1    3 ar
     3    2    4 ar
     4    3    8 ar
     5    4    9 ar
     6    5    6 ar
     7    5   10 ar
     8    6   11 ar
     9    7   10 ar
    10    7   12 ar
    11    7   13 1
    12    8    9 ar
    13    8   14 1
    14    9   16 1
    15   10   18 1
    16   11   12 ar
    17   11   21 1
    18   12   22 1
    19   13   19 1
    20   13   20 2
    21   14   17 1
    22   15   21 1
    23   15   22 1
    24   16   17 1
    25   16   18 1
    26   17   23 1
    27    1   24 1
    28    2   25 1
    29    3   26 1
    30    4   27 1
    31    5   28 1
    32    6   29 1
    33   14   30 1
    34   14   31 1
    35   15   32 1
    36   15   33 1
    37   16   34 1
    38   17   35 1
    39   18   36 1
    40   18   37 1
    41   23   38 1
