@<TRIPOS>MOLECULE
AVX17734_1
   67    70     0     0     0
SMALL
NO_CHARGES

@<TRIPOS>ATOM
      1 C1         -0.4718    5.3693    9.9443 C.ar      1 MOL         0.0000
      2 C2          3.6112    0.2131    8.2606 C.ar      1 MOL         0.0000
      3 C3         -1.2962    4.4419    9.3073 C.ar      1 MOL         0.0000
      4 C4          0.4149    6.1438    9.1962 C.ar      1 MOL         0.0000
      5 C5          3.9730    1.4501    7.7272 C.ar      1 MOL         0.0000
      6 C6          2.5968   -0.5346    7.6625 C.ar      1 MOL         0.0000
      7 C7         -1.2338    4.2888    7.9223 C.ar      1 MOL         0.0000
      8 C8          0.4773    5.9908    7.8112 C.ar      1 MOL         0.0000
      9 C9          3.3204    1.9395    6.5957 C.ar      1 MOL         0.0000
     10 C10         1.9442   -0.0452    6.5311 C.ar      1 MOL         0.0000
     11 C11         2.6984   -0.1554   -0.8335 C.ar      1 MOL         0.0000
     12 C12         2.4898    0.5064   -2.0437 C.ar      1 MOL         0.0000
     13 C13         0.4110   -0.9383   -0.8600 C.ar      1 MOL         0.0000
     14 C14        -0.3471    5.0633    7.1742 C.ar      1 MOL         0.0000
     15 C15         2.3059    1.1919    5.9976 C.ar      1 MOL         0.0000
     16 C16         1.6588   -0.8721   -0.2397 C.ar      1 MOL         0.0000
     17 C17         1.2382    0.4521   -2.6575 C.ar      1 MOL         0.0000
     18 C18         0.2058   -0.2881   -2.0772 C.ar      1 MOL         0.0000
     19 C19        -0.6844   -1.7059   -0.2329 C.2       1 MOL         0.0000
     20 C20         0.3774    2.5560    5.1401 C.2       1 MOL         0.0000
     21 C21         0.2955    3.7746   -7.1899 C.2       1 MOL         0.0000
     22 C22         1.9676    0.1572    2.8693 C.2       1 MOL         0.0000
     23 C23        -1.0304   -0.0109   -4.0227 C.3       1 MOL         0.0000
     24 C24        -0.2903    1.3099   -4.1877 C.3       1 MOL         0.0000
     25 C25        -0.2793    4.8988    5.6834 C.3       1 MOL         0.0000
     26 C26         1.9131   -1.5618    1.0613 C.3       1 MOL         0.0000
     27 C27         0.3150    3.1551   -5.7876 C.3       1 MOL         0.0000
     28 C28        -0.3416    1.7973   -5.6283 C.3       1 MOL         0.0000
     29 C29         1.5984    1.7215    4.7721 C.3       1 MOL         0.0000
     30 N1          0.6892    3.8998    5.2929 N.am      1 MOL         0.0000
     31 N2          1.3210   -0.8638    2.1728 N.am      1 MOL         0.0000
     32 N3          1.1697    0.6573    3.8953 N.am      1 MOL         0.0000
     33 O1         -0.8128   -2.9493   -0.5320 O.co2     1 MOL         0.0000
     34 O2          0.8451    4.9034   -7.3139 O.co2     1 MOL         0.0000
     35 O3         -1.4672   -1.1009    0.5876 O.co2     1 MOL         0.0000
     36 O4         -0.7367    2.0662    5.3150 O.2       1 MOL         0.0000
     37 O5         -0.2683    3.0571   -8.0657 O.co2     1 MOL         0.0000
     38 O6          3.0991    0.5648    2.6098 O.2       1 MOL         0.0000
     39 O7         -1.0342   -0.4070   -2.6475 O.3       1 MOL         0.0000
     40 O8          1.0891    1.1390   -3.8334 O.3       1 MOL         0.0000
     41 H1         -0.5214    5.4893   11.0226 H         1 MOL         0.0000
     42 H2          4.1204   -0.1684    9.1408 H         1 MOL         0.0000
     43 H3         -1.9875    3.8395    9.8895 H         1 MOL         0.0000
     44 H4          1.0562    6.8668    9.6917 H         1 MOL         0.0000
     45 H5          4.7636    2.0319    8.1921 H         1 MOL         0.0000
     46 H6          2.3156   -1.4982    8.0769 H         1 MOL         0.0000
     47 H7         -1.8798    3.5635    7.4346 H         1 MOL         0.0000
     48 H8          1.1713    6.5984    7.2365 H         1 MOL         0.0000
     49 H9          3.6088    2.9044    6.1871 H         1 MOL         0.0000
     50 H10         1.1549   -0.6345    6.0719 H         1 MOL         0.0000
     51 H11         3.6743   -0.1024   -0.3581 H         1 MOL         0.0000
     52 H12         3.3018    1.0714   -2.4932 H         1 MOL         0.0000
     53 H13        -2.0746    0.0878   -4.3377 H         1 MOL         0.0000
     54 H14        -0.5716   -0.8142   -4.6135 H         1 MOL         0.0000
     55 H15        -0.7167    2.0789   -3.5292 H         1 MOL         0.0000
     56 H16        -1.2539    4.5983    5.2834 H         1 MOL         0.0000
     57 H17        -0.0042    5.8402    5.1963 H         1 MOL         0.0000
     58 H18         1.5038   -2.5806    1.0529 H         1 MOL         0.0000
     59 H19         2.9882   -1.6512    1.2633 H         1 MOL         0.0000
     60 H20        -0.2154    3.8603   -5.1353 H         1 MOL         0.0000
     61 H21         1.3545    3.1146   -5.4385 H         1 MOL         0.0000
     62 H22         0.1262    1.0439   -6.2597 H         1 MOL         0.0000
     63 H23        -1.3929    1.8615   -5.9078 H         1 MOL         0.0000
     64 H24         2.2797    2.3355    4.1708 H         1 MOL         0.0000
     65 H25         1.6415    4.2118    5.1273 H         1 MOL         0.0000
     66 H26         0.3830   -1.1289    2.4651 H         1 MOL         0.0000
     67 H27         0.2295    0.2908    4.0064 H         1 MOL         0.0000
@<TRIPOS>BOND
     1    1    3 ar
     2    1    4 ar
     3    2    5 ar
     4    2    6 ar
     5    3    7 ar
     6    4    8 ar
     7    5    9 ar
     8    6   10 ar
     9    7   14 ar
    10    8   14 ar
    11    9   15 ar
    12   10   15 ar
    13   11   12 ar
    14   11   16 ar
    15   12   17 ar
    16   13   16 ar
    17   13   18 ar
    18   13   19 1
    19   14   25 1
    20   15   29 1
    21   16   26 1
    22   17   18 ar
    23   17   40 1
    24   18   39 1
    25   19   33 1
    26   19   35 2
    27   20   29 1
    28   20   30 am
    29   20   36 2
    30   21   27 1
    31   21   34 1
    32   21   37 2
    33   22   31 am
    34   22   32 am
    35   22   38 2
    36   23   24 1
    37   23   39 1
    38   24   28 1
    39   24   40 1
    40   25   30 1
    41   26   31 1
    42   27   28 1
    43   29   32 1
    44    1   41 1
    45    2   42 1
    46    3   43 1
    47    4   44 1
    48    5   45 1
    49    6   46 1
    50    7   47 1
    51    8   48 1
    52    9   49 1
    53   10   50 1
    54   11   51 1
    55   12   52 1
    56   23   53 1
    57   23   54 1
    58   24   55 1
    59   25   56 1
    60   25   57 1
    61   26   58 1
    62   26   59 1
    63   27   60 1
    64   27   61 1
    65   28   62 1
    66   28   63 1
    67   29   64 1
    68   30   65 1
    69   31   66 1
    70   32   67 1
