@<TRIPOS>MOLECULE
AVX101133_1
   60    63     0     0     0
SMALL
NO_CHARGES

@<TRIPOS>ATOM
      1 C1         -0.9609   -2.3954   -3.6063 C.ar      1 MOL         0.0000
      2 C2         -1.6298   -1.7256   -4.6406 C.ar      1 MOL         0.0000
      3 C3         -0.5492   -1.7076   -2.4618 C.ar      1 MOL         0.0000
      4 C4         -0.8847   -1.6763    0.9972 C.ar      1 MOL         0.0000
      5 C5         -1.8964   -0.3592   -4.5435 C.ar      1 MOL         0.0000
      6 C6         -0.6995   -2.9711    1.4828 C.ar      1 MOL         0.0000
      7 C7         -0.8147   -0.3480   -2.3723 C.ar      1 MOL         0.0000
      8 C8          0.1764   -0.9939    0.4014 C.ar      1 MOL         0.0000
      9 C9          1.4288   -1.6000    0.2985 C.ar      1 MOL         0.0000
     10 C10        -1.4773    0.3184   -3.4078 C.ar      1 MOL         0.0000
     11 C11         0.5491   -3.5830    1.3685 C.ar      1 MOL         0.0000
     12 C12         1.6184   -2.8895    0.7961 C.ar      1 MOL         0.0000
     13 C13        -0.4976    0.6168   -1.3210 C.2       1 MOL         0.0000
     14 C14        -0.0579    0.3309   -0.0904 C.2       1 MOL         0.0000
     15 C15         2.5602   -0.8794   -0.3251 C.2       1 MOL         0.0000
     16 C16         0.5798    4.0313   -2.1922 C.2       1 MOL         0.0000
     17 C17        -1.7092    1.7658   -3.0900 C.3       1 MOL         0.0000
     18 C18         1.8524   -5.5033    1.3737 C.3       1 MOL         0.0000
     19 C19         3.0420   -4.5742    1.5177 C.3       1 MOL         0.0000
     20 C20        -0.8181    1.9958   -1.8541 C.3       1 MOL         0.0000
     21 C21         1.9760    4.4361   -2.6366 C.3       1 MOL         0.0000
     22 C22         2.2082    5.9463   -2.6380 C.3       1 MOL         0.0000
     23 C23         3.6266    6.3183   -3.0841 C.3       1 MOL         0.0000
     24 C24         3.8353    7.8356   -3.0508 C.3       1 MOL         0.0000
     25 C25         5.2343    8.2648   -3.4753 C.3       1 MOL         0.0000
     26 N1          0.4193    2.6533   -2.2080 N.am      1 MOL         0.0000
     27 N2          5.5160    7.8330   -4.8645 N.4       1 MOL         0.0000
     28 O1          2.7420   -1.0030   -1.5906 O.co2     1 MOL         0.0000
     29 O2          3.3153   -0.1596    0.4239 O.co2     1 MOL         0.0000
     30 O3         -0.2891    4.8419   -1.8829 O.2       1 MOL         0.0000
     31 O4          0.6637   -4.8627    1.8454 O.3       1 MOL         0.0000
     32 O5          2.8757   -3.4235    0.6849 O.3       1 MOL         0.0000
     33 H1         -0.7617   -3.4598   -3.6961 H         1 MOL         0.0000
     34 H2         -1.9465   -2.2769   -5.5218 H         1 MOL         0.0000
     35 H3         -0.0299   -2.2393   -1.6712 H         1 MOL         0.0000
     36 H4         -1.8654   -1.2149    1.0883 H         1 MOL         0.0000
     37 H5         -2.4240    0.1556   -5.3396 H         1 MOL         0.0000
     38 H6         -1.5333   -3.4981    1.9386 H         1 MOL         0.0000
     39 H7          0.1065    1.1647    0.5897 H         1 MOL         0.0000
     40 H8         -1.4453    2.4157   -3.9307 H         1 MOL         0.0000
     41 H9         -2.7653    1.9090   -2.8338 H         1 MOL         0.0000
     42 H10         1.6974   -5.8042    0.3300 H         1 MOL         0.0000
     43 H11         2.0026   -6.4079    1.9712 H         1 MOL         0.0000
     44 H12         3.1705   -4.2393    2.5547 H         1 MOL         0.0000
     45 H13         3.9605   -5.0811    1.2060 H         1 MOL         0.0000
     46 H14        -1.3253    2.6284   -1.1181 H         1 MOL         0.0000
     47 H15         2.7179    3.9387   -2.0009 H         1 MOL         0.0000
     48 H16         2.1082    4.0564   -3.6572 H         1 MOL         0.0000
     49 H17         1.4889    6.4063   -3.3267 H         1 MOL         0.0000
     50 H18         2.0086    6.3630   -1.6435 H         1 MOL         0.0000
     51 H19         3.7980    5.9478   -4.1021 H         1 MOL         0.0000
     52 H20         4.3578    5.8267   -2.4340 H         1 MOL         0.0000
     53 H21         3.1139    8.3097   -3.7277 H         1 MOL         0.0000
     54 H22         3.6195    8.2149   -2.0443 H         1 MOL         0.0000
     55 H23         5.3605    9.3509   -3.4440 H         1 MOL         0.0000
     56 H24         5.9934    7.7939   -2.8437 H         1 MOL         0.0000
     57 H25         1.2106    2.0781   -2.4819 H         1 MOL         0.0000
     58 H26         4.6550    7.5447   -5.3427 H         1 MOL         0.0000
     59 H27         6.1649    7.0379   -4.8785 H         1 MOL         0.0000
     60 H28         5.9385    8.5938   -5.4085 H         1 MOL         0.0000
@<TRIPOS>BOND
     1    1    2 ar
     2    1    3 ar
     3    2    5 ar
     4    3    7 ar
     5    4    6 ar
     6    4    8 ar
     7    5   10 ar
     8    6   11 ar
     9    7   10 ar
    10    7   13 1
    11    8    9 ar
    12    8   14 1
    13    9   12 ar
    14    9   15 1
    15   10   17 1
    16   11   12 ar
    17   11   31 1
    18   12   32 1
    19   13   14 2
    20   13   20 1
    21   15   28 1
    22   15   29 2
    23   16   21 1
    24   16   26 am
    25   16   30 2
    26   17   20 1
    27   18   19 1
    28   18   31 1
    29   19   32 1
    30   20   26 1
    31   21   22 1
    32   22   23 1
    33   23   24 1
    34   24   25 1
    35   25   27 1
    36    1   33 1
    37    2   34 1
    38    3   35 1
    39    4   36 1
    40    5   37 1
    41    6   38 1
    42   14   39 1
    43   17   40 1
    44   17   41 1
    45   18   42 1
    46   18   43 1
    47   19   44 1
    48   19   45 1
    49   20   46 1
    50   21   47 1
    51   21   48 1
    52   22   49 1
    53   22   50 1
    54   23   51 1
    55   23   52 1
    56   24   53 1
    57   24   54 1
    58   25   55 1
    59   25   56 1
    60   26   57 1
    61   27   58 1
    62   27   59 1
    63   27   60 1
