AVX17389_0
  -OEChem-04011314533D

 24 25  0     0  0  0  0  0  0999 V2000
    0.8726    1.2794    1.5062 C   0  0  0  0  0  0  0  0  0  0  0  0
   -0.1481    0.4787    0.9641 C   0  0  0  0  0  0  0  0  0  0  0  0
    0.7042    1.9049    2.7438 C   0  0  0  0  0  0  0  0  0  0  0  0
   -1.3491    0.2943    1.6535 C   0  0  0  0  0  0  0  0  0  0  0  0
   -0.4910    1.7067    3.4041 C   0  0  0  0  0  0  0  0  0  0  0  0
   -1.4901    0.9230    2.8735 C   0  0  0  0  0  0  0  0  0  0  0  0
   -2.4045   -0.5328    1.0940 C   0  0  0  0  0  0  0  0  0  0  0  0
   -4.9545   -2.5685    2.8873 C   0  0  0  0  0  0  0  0  0  0  0  0
   -2.1588    1.6916    4.7825 C   0  0  0  0  0  0  0  0  0  0  0  0
   -4.3192   -2.0720    1.5993 C   0  0  0  0  0  0  0  0  0  0  0  0
   -3.2411   -1.1966    1.9997 N   0  0  0  0  0  0  0  0  0  0  0  0
   -5.4225   -1.6662    3.6378 O   0  5  0  0  0  0  0  0  0  0  0  0
   -2.5302   -0.6499   -0.1386 O   0  0  0  0  0  0  0  0  0  0  0  0
   -4.9462   -3.8225    3.0418 O   0  0  0  0  0  0  0  0  0  0  0  0
   -0.8328    2.2326    4.6117 O   0  0  0  0  0  0  0  0  0  0  0  0
   -2.5825    0.8600    3.6827 O   0  0  0  0  0  0  0  0  0  0  0  0
    1.8008    1.4114    0.9566 H   0  0  0  0  0  0  0  0  0  0  0  0
    0.0101    0.0043   -0.0017 H   0  0  0  0  0  0  0  0  0  0  0  0
    1.4898    2.5219    3.1649 H   0  0  0  0  0  0  0  0  0  0  0  0
   -2.1784    1.0945    5.7014 H   0  0  0  0  0  0  0  0  0  0  0  0
   -2.8663    2.5222    4.8874 H   0  0  0  0  0  0  0  0  0  0  0  0
   -5.0458   -1.5267    0.9891 H   0  0  0  0  0  0  0  0  0  0  0  0
   -3.9323   -2.9077    1.0079 H   0  0  0  0  0  0  0  0  0  0  0  0
   -3.0563   -1.1173    2.9944 H   0  0  0  0  0  0  0  0  0  0  0  0
  1  2  1  0  0  0  0
  1  3  2  0  0  0  0
  2  4  2  0  0  0  0
  3  5  1  0  0  0  0
  4  6  1  0  0  0  0
  4  7  1  0  0  0  0
  5  6  2  0  0  0  0
  5 15  1  0  0  0  0
  6 16  1  0  0  0  0
  7 11  1  0  0  0  0
  7 13  2  0  0  0  0
  8 10  1  0  0  0  0
  8 12  1  0  0  0  0
  8 14  2  0  0  0  0
  9 15  1  0  0  0  0
  9 16  1  0  0  0  0
 10 11  1  0  0  0  0
  1 17  1  0  0  0  0
  2 18  1  0  0  0  0
  3 19  1  0  0  0  0
  9 20  1  0  0  0  0
  9 21  1  0  0  0  0
 10 22  1  0  0  0  0
 10 23  1  0  0  0  0
 11 24  1  0  0  0  0
M  CHG  1  12  -1
M  END
$$$$
