@<TRIPOS>MOLECULE
AVX17284_0
   30    32     0     0     0
SMALL
NO_CHARGES

@<TRIPOS>ATOM
      1 C1         -0.1948   -1.2188   -1.7733 C.ar      1 MOL         0.0000
      2 C2          1.7938   -9.0038   -3.2687 C.ar      1 MOL         0.0000
      3 C3          0.7106   -9.8708   -3.1265 C.ar      1 MOL         0.0000
      4 C4          0.0489   -1.0083   -0.4029 C.ar      1 MOL         0.0000
      5 C5         -0.1402   -2.5032   -2.3253 C.ar      1 MOL         0.0000
      6 C6          1.6030   -7.6260   -3.1627 C.ar      1 MOL         0.0000
      7 C7         -0.5636   -9.3603   -2.8784 C.ar      1 MOL         0.0000
      8 C8          0.3519   -2.0775    0.4422 C.ar      1 MOL         0.0000
      9 C9          0.1604   -3.5565   -1.4826 C.ar      1 MOL         0.0000
     10 C10         0.3289   -7.1155   -2.9147 C.ar      1 MOL         0.0000
     11 C11        -0.7544   -7.9825   -2.7725 C.ar      1 MOL         0.0000
     12 C12         0.4008   -3.3366   -0.1231 C.ar      1 MOL         0.0000
     13 C13         0.3033   -4.9945   -1.6833 C.2       1 MOL         0.0000
     14 C14         0.6440   -5.6207   -0.3620 C.2       1 MOL         0.0000
     15 C15         0.1687   -5.6938   -2.8117 C.2       1 MOL         0.0000
     16 C16        -2.1156   -7.4764   -2.5095 C.2       1 MOL         0.0000
     17 N1          0.6826   -4.5427    0.5281 N.am      1 MOL         0.0000
     18 O1         -2.4909   -7.3243   -1.2890 O.co2     1 MOL         0.0000
     19 O2          0.8372   -6.8024   -0.1432 O.2       1 MOL         0.0000
     20 O3         -2.8763   -7.2066   -3.5106 O.co2     1 MOL         0.0000
     21 H1         -0.4282   -0.3694   -2.4102 H         1 MOL         0.0000
     22 H2          2.7859   -9.4015   -3.4618 H         1 MOL         0.0000
     23 H3          0.8593  -10.9435   -3.2089 H         1 MOL         0.0000
     24 H4          0.0012    0.0003   -0.0007 H         1 MOL         0.0000
     25 H5         -0.3291   -2.6545   -3.3823 H         1 MOL         0.0000
     26 H6          2.4587   -6.9645   -3.2762 H         1 MOL         0.0000
     27 H7         -1.3999  -10.0460   -2.7694 H         1 MOL         0.0000
     28 H8          0.5403   -1.9161    1.4974 H         1 MOL         0.0000
     29 H9         -0.0527   -5.1412   -3.7249 H         1 MOL         0.0000
     30 H10         0.8882   -4.6244    1.5170 H         1 MOL         0.0000
@<TRIPOS>BOND
     1    1    4 ar
     2    1    5 ar
     3    2    3 ar
     4    2    6 ar
     5    3    7 ar
     6    4    8 ar
     7    5    9 ar
     8    6   10 ar
     9    7   11 ar
    10    8   12 ar
    11    9   12 ar
    12    9   13 1
    13   10   11 ar
    14   10   15 1
    15   11   16 1
    16   12   17 1
    17   13   14 1
    18   13   15 2
    19   14   17 am
    20   14   19 2
    21   16   18 1
    22   16   20 2
    23    1   21 1
    24    2   22 1
    25    3   23 1
    26    4   24 1
    27    5   25 1
    28    6   26 1
    29    7   27 1
    30    8   28 1
    31   15   29 1
    32   17   30 1
