@<TRIPOS>MOLECULE
AVX17280_1
   31    33     0     0     0
SMALL
NO_CHARGES

@<TRIPOS>ATOM
      1 C1          1.3313   -0.5065   -0.0808 C.ar      1 MOL         0.0000
      2 C2         -1.4722   -0.4986    0.5277 C.ar      1 MOL         0.0000
      3 C3          0.5438    0.6246   -0.1805 C.ar      1 MOL         0.0000
      4 C4          0.6639   -1.6404    0.3387 C.ar      1 MOL         0.0000
      5 C5         -0.8149    0.6452    0.1104 C.ar      1 MOL         0.0000
      6 C6         -0.6917   -1.6370    0.6330 C.ar      1 MOL         0.0000
      7 C7          0.8747    1.9651   -0.5828 C.2       1 MOL         0.0000
      8 C8         -2.3905    4.9794   -2.9377 C.2       1 MOL         0.0000
      9 C9          0.0815   -3.6372    0.9461 C.3       1 MOL         0.0000
     10 C10        -0.3853    2.7878   -0.4626 C.3       1 MOL         0.0000
     11 C11        -4.0068    6.4199   -3.8921 C.3       1 MOL         0.0000
     12 C12        -2.0204    4.2993   -1.6394 C.3       1 MOL         0.0000
     13 C13        -0.7683    3.4344   -1.7791 C.3       1 MOL         0.0000
     14 O1          1.9729    2.3355   -0.9480 O.2       1 MOL         0.0000
     15 O2         -1.7691    4.8832   -3.9870 O.2       1 MOL         0.0000
     16 O3          1.2231   -2.8702    0.5130 O.3       1 MOL         0.0000
     17 O4         -1.1337   -2.8649    1.0244 O.3       1 MOL         0.0000
     18 O5         -1.4251    1.8620   -0.0596 O.3       1 MOL         0.0000
     19 O6         -3.5269    5.7128   -2.7440 O.3       1 MOL         0.0000
     20 H1          2.3877   -0.5061   -0.3131 H         1 MOL         0.0000
     21 H2         -2.5303   -0.5037    0.7564 H         1 MOL         0.0000
     22 H3         -0.0734   -4.4618    0.2408 H         1 MOL         0.0000
     23 H4          0.2952   -4.0572    1.9357 H         1 MOL         0.0000
     24 H5         -0.2633    3.5301    0.3335 H         1 MOL         0.0000
     25 H6         -4.9136    6.9701   -3.6293 H         1 MOL         0.0000
     26 H7         -4.2184    5.7104   -4.6960 H         1 MOL         0.0000
     27 H8         -3.2392    7.1237   -4.2227 H         1 MOL         0.0000
     28 H9         -1.8499    5.0746   -0.8838 H         1 MOL         0.0000
     29 H10        -2.8656    3.6757   -1.3273 H         1 MOL         0.0000
     30 H11        -0.9380    2.6549   -2.5336 H         1 MOL         0.0000
     31 H12         0.0672    4.0463   -2.1435 H         1 MOL         0.0000
@<TRIPOS>BOND
     1    1    3 ar
     2    1    4 ar
     3    2    5 ar
     4    2    6 ar
     5    3    5 ar
     6    3    7 1
     7    4    6 ar
     8    4   16 1
     9    5   18 1
    10    6   17 1
    11    7   10 1
    12    7   14 2
    13    8   12 1
    14    8   15 2
    15    8   19 1
    16    9   16 1
    17    9   17 1
    18   10   13 1
    19   10   18 1
    20   11   19 1
    21   12   13 1
    22    1   20 1
    23    2   21 1
    24    9   22 1
    25    9   23 1
    26   10   24 1
    27   11   25 1
    28   11   26 1
    29   11   27 1
    30   12   28 1
    31   12   29 1
    32   13   30 1
    33   13   31 1
