AVX16981_0
  -OEChem-04011314523D

 31 33  0     0  0  0  0  0  0999 V2000
   -0.2970    0.8444    2.1842 C   0  0  0  0  0  0  0  0  0  0  0  0
   -0.4191   -0.2467    1.3260 C   0  0  0  0  0  0  0  0  0  0  0  0
   -4.6292    0.0737    7.9574 C   0  0  0  0  0  0  0  0  0  0  0  0
   -1.3748    1.2571    2.9760 C   0  0  0  0  0  0  0  0  0  0  0  0
   -3.4973    0.5439    8.6231 C   0  0  0  0  0  0  0  0  0  0  0  0
   -4.8676    0.4500    6.6355 C   0  0  0  0  0  0  0  0  0  0  0  0
   -1.6183   -0.9586    1.2314 C   0  0  0  0  0  0  0  0  0  0  0  0
   -2.8422    1.7671    6.6453 C   0  0  0  0  0  0  0  0  0  0  0  0
   -4.6801   -0.3017    3.0507 C   0  0  0  0  0  0  0  0  0  0  0  0
   -2.5938    0.5547    2.8975 C   0  0  0  0  0  0  0  0  0  0  0  0
   -2.6038    1.3907    7.9671 C   0  0  0  0  0  0  0  0  0  0  0  0
   -3.9741    1.2968    5.9795 C   0  0  0  0  0  0  0  0  0  0  0  0
   -3.8586    0.6897    3.5356 C   0  0  0  0  0  0  0  0  0  0  0  0
   -2.6873   -0.5347    2.0288 C   0  0  0  0  0  0  0  0  0  0  0  0
   -1.4096    1.8875    8.6692 C   0  0  0  0  0  0  0  0  0  0  0  0
   -4.2341    1.7076    4.5379 C   0  0  0  0  0  0  0  0  0  0  0  0
   -3.9647   -1.0352    2.1426 N   0  0  0  0  0  0  0  0  0  0  0  0
   -0.6006    2.6678    8.0403 O   0  5  0  0  0  0  0  0  0  0  0  0
   -1.2123    1.5254    9.8894 O   0  0  0  0  0  0  0  0  0  0  0  0
    0.6458    1.3818    2.2407 H   0  0  0  0  0  0  0  0  0  0  0  0
    0.4308   -0.5499    0.7200 H   0  0  0  0  0  0  0  0  0  0  0  0
   -5.3245   -0.5858    8.4684 H   0  0  0  0  0  0  0  0  0  0  0  0
   -1.2634    2.1090    3.6407 H   0  0  0  0  0  0  0  0  0  0  0  0
   -3.3208    0.2442    9.6530 H   0  0  0  0  0  0  0  0  0  0  0  0
   -5.7519    0.0787    6.1246 H   0  0  0  0  0  0  0  0  0  0  0  0
   -1.7127   -1.8071    0.5623 H   0  0  0  0  0  0  0  0  0  0  0  0
   -2.1464    2.4272    6.1324 H   0  0  0  0  0  0  0  0  0  0  0  0
   -5.7087   -0.5526    3.2706 H   0  0  0  0  0  0  0  0  0  0  0  0
   -5.3039    1.9862    4.4454 H   0  0  0  0  0  0  0  0  0  0  0  0
   -3.7092    2.6669    4.3513 H   0  0  0  0  0  0  0  0  0  0  0  0
   -4.3219   -1.8293    1.6296 H   0  0  0  0  0  0  0  0  0  0  0  0
  1  2  2  0  0  0  0
  1  4  1  0  0  0  0
  2  7  1  0  0  0  0
  3  5  1  0  0  0  0
  3  6  2  0  0  0  0
  4 10  2  0  0  0  0
  5 11  2  0  0  0  0
  6 12  1  0  0  0  0
  7 14  2  0  0  0  0
  8 11  1  0  0  0  0
  8 12  2  0  0  0  0
  9 13  2  0  0  0  0
  9 17  1  0  0  0  0
 10 13  1  0  0  0  0
 10 14  1  0  0  0  0
 11 15  1  0  0  0  0
 12 16  1  0  0  0  0
 13 16  1  0  0  0  0
 14 17  1  0  0  0  0
 15 18  1  0  0  0  0
 15 19  2  0  0  0  0
  1 20  1  0  0  0  0
  2 21  1  0  0  0  0
  3 22  1  0  0  0  0
  4 23  1  0  0  0  0
  5 24  1  0  0  0  0
  6 25  1  0  0  0  0
  7 26  1  0  0  0  0
  8 27  1  0  0  0  0
  9 28  1  0  0  0  0
 16 29  1  0  0  0  0
 16 30  1  0  0  0  0
 17 31  1  0  0  0  0
M  CHG  1  18  -1
M  END
$$$$
