@<TRIPOS>MOLECULE
AVX17384_0
   44    46     0     0     0
SMALL
NO_CHARGES

@<TRIPOS>ATOM
      1 C1         10.5101   -1.0827    3.2322 C.ar      1 MOL         0.0000
      2 C2         10.1737   -1.2387    1.8875 C.ar      1 MOL         0.0000
      3 C3          9.5734   -0.5719    4.1307 C.ar      1 MOL         0.0000
      4 C4          8.9006   -0.8837    1.4414 C.ar      1 MOL         0.0000
      5 C5          6.4116    0.4147    0.6123 C.2       1 MOL         0.0000
      6 C6          8.3004   -0.2168    3.6846 C.ar      1 MOL         0.0000
      7 C7          5.0559    0.6340    0.5921 C.2       1 MOL         0.0000
      8 C8          7.9640   -0.3727    2.3399 C.ar      1 MOL         0.0000
      9 C9          4.6250    0.2938    1.8884 C.2       1 MOL         0.0000
     10 C10         7.3490    0.3131    4.6547 C.2       1 MOL         0.0000
     11 C11         1.7412    4.2125    3.9162 C.3       1 MOL         0.0000
     12 C12         1.7080    3.7220    5.3582 C.3       1 MOL         0.0000
     13 C13         1.0306    3.2185    3.0015 C.3       1 MOL         0.0000
     14 C14         2.2171    2.2906    5.4502 C.3       1 MOL         0.0000
     15 C15         1.5544    1.7980    3.2095 C.3       1 MOL         0.0000
     16 C16         4.2449    1.1167   -0.5381 C.3       1 MOL         0.0000
     17 C17         3.2289    0.3417    2.4362 C.3       1 MOL         0.0000
     18 N1          5.6259   -0.1109    2.6748 N.2       1 MOL         0.0000
     19 N2          6.6991   -0.0266    1.8703 N.pl3     1 MOL         0.0000
     20 N3          7.3290    1.6890    4.8509 N.am      1 MOL         0.0000
     21 O1          6.5959   -0.4380    5.2948 O.2       1 MOL         0.0000
     22 O2          1.4802    1.4248    4.5874 O.3       1 MOL         0.0000
     23 O3          2.8753    1.6940    2.6863 O.3       1 MOL         0.0000
     24 H1         11.5012   -1.3591    3.5799 H         1 MOL         0.0000
     25 H2         10.9030   -1.6368    1.1882 H         1 MOL         0.0000
     26 H3          9.8478   -0.4558    5.1762 H         1 MOL         0.0000
     27 H4          8.6534   -1.0110    0.3899 H         1 MOL         0.0000
     28 H5          7.1733    0.5343   -0.1472 H         1 MOL         0.0000
     29 H6          1.2658    5.1968    3.8424 H         1 MOL         0.0000
     30 H7          2.7824    4.3333    3.5934 H         1 MOL         0.0000
     31 H8          2.3038    4.3806    5.9987 H         1 MOL         0.0000
     32 H9          0.6720    3.7588    5.7171 H         1 MOL         0.0000
     33 H10        -0.0413    3.2420    3.2331 H         1 MOL         0.0000
     34 H11         1.1598    3.5278    1.9585 H         1 MOL         0.0000
     35 H12         3.2840    2.2314    5.2061 H         1 MOL         0.0000
     36 H13         2.0963    1.9198    6.4731 H         1 MOL         0.0000
     37 H14         0.9204    1.1047    2.6458 H         1 MOL         0.0000
     38 H15         3.8717    0.2780   -1.1509 H         1 MOL         0.0000
     39 H16         3.3680    1.6996   -0.2038 H         1 MOL         0.0000
     40 H17         4.8160    1.7871   -1.2053 H         1 MOL         0.0000
     41 H18         2.5145   -0.0888    1.7262 H         1 MOL         0.0000
     42 H19         3.1591   -0.2264    3.3700 H         1 MOL         0.0000
     43 H20         7.9659    2.2757    4.3228 H         1 MOL         0.0000
     44 H21         6.6898    2.1182    5.5121 H         1 MOL         0.0000
@<TRIPOS>BOND
     1    1    2 ar
     2    1    3 ar
     3    2    4 ar
     4    3    6 ar
     5    4    8 ar
     6    5    7 2
     7    5   19 1
     8    6    8 ar
     9    6   10 1
    10    7    9 1
    11    7   16 1
    12    8   19 1
    13    9   17 1
    14    9   18 2
    15   10   20 am
    16   10   21 2
    17   11   12 1
    18   11   13 1
    19   12   14 1
    20   13   15 1
    21   14   22 1
    22   15   22 1
    23   15   23 1
    24   17   23 1
    25   18   19 1
    26    1   24 1
    27    2   25 1
    28    3   26 1
    29    4   27 1
    30    5   28 1
    31   11   29 1
    32   11   30 1
    33   12   31 1
    34   12   32 1
    35   13   33 1
    36   13   34 1
    37   14   35 1
    38   14   36 1
    39   15   37 1
    40   16   38 1
    41   16   39 1
    42   16   40 1
    43   17   41 1
    44   17   42 1
    45   20   43 1
    46   20   44 1
