AVX17631_0
  -OEChem-04011314553D

 16 17  0     0  0  0  0  0  0999 V2000
   -1.2009    1.0896   -1.4147 C   0  0  0  0  0  0  0  0  0  0  0  0
   -0.8799   -0.0285   -0.6380 C   0  0  0  0  0  0  0  0  0  0  0  0
   -2.3265    1.0925   -2.2508 C   0  0  0  0  0  0  0  0  0  0  0  0
   -1.6680   -1.1837   -0.6662 C   0  0  0  0  0  0  0  0  0  0  0  0
   -3.1259   -0.0594   -2.2892 C   0  0  0  0  0  0  0  0  0  0  0  0
   -2.7767   -1.1462   -1.5067 C   0  0  0  0  0  0  0  0  0  0  0  0
   -4.2933   -0.4889   -2.9495 C   0  0  0  0  0  0  0  0  0  0  0  0
   -4.6417   -1.7335   -2.6097 N   0  0  0  0  0  0  0  0  0  0  0  0
   -4.9580    0.3073   -3.8262 N   0  0  0  0  0  0  0  0  0  0  0  0
   -3.6797   -2.1469   -1.6963 O   0  0  0  0  0  0  0  0  0  0  0  0
   -0.5675    1.9720   -1.3701 H   0  0  0  0  0  0  0  0  0  0  0  0
   -0.0003    0.0003    0.0005 H   0  0  0  0  0  0  0  0  0  0  0  0
   -2.5624    1.9678   -2.8479 H   0  0  0  0  0  0  0  0  0  0  0  0
   -1.4274   -2.0543   -0.0685 H   0  0  0  0  0  0  0  0  0  0  0  0
   -4.6634    1.2735   -4.0088 H   0  0  0  0  0  0  0  0  0  0  0  0
   -5.8342    0.0086   -4.2696 H   0  0  0  0  0  0  0  0  0  0  0  0
  1  2  1  0  0  0  0
  1  3  2  0  0  0  0
  2  4  2  0  0  0  0
  3  5  1  0  0  0  0
  4  6  1  0  0  0  0
  5  6  2  0  0  0  0
  5  7  1  0  0  0  0
  6 10  1  0  0  0  0
  7  8  2  0  0  0  0
  7  9  1  0  0  0  0
  8 10  1  0  0  0  0
  1 11  1  0  0  0  0
  2 12  1  0  0  0  0
  3 13  1  0  0  0  0
  4 14  1  0  0  0  0
  9 15  1  0  0  0  0
  9 16  1  0  0  0  0
M  END
$$$$
