AVX17269_0
  -OEChem-04011314523D

 27 29  0     1  0  0  0  0  0999 V2000
    0.6617   -0.8335   -0.9502 C   0  0  0  0  0  0  0  0  0  0  0  0
   -0.3677   -0.0155    1.5997 C   0  0  0  0  0  0  0  0  0  0  0  0
   -0.1609    0.2652   -0.7891 C   0  0  0  0  0  0  0  0  0  0  0  0
    0.9517   -1.5145    0.2158 C   0  0  0  0  0  0  0  0  0  0  0  0
   -0.6676    0.6744    0.4385 C   0  0  0  0  0  0  0  0  0  0  0  0
    0.4541   -1.1192    1.4490 C   0  0  0  0  0  0  0  0  0  0  0  0
   -0.6667    1.2069   -1.7511 C   0  0  0  0  0  0  0  0  0  0  0  0
   -1.6640    6.0827   -0.6154 C   0  0  0  0  0  0  0  0  0  0  0  0
    1.6809   -2.8837    1.7287 C   0  0  0  0  0  0  0  0  0  0  0  0
   -1.5465    2.1775   -1.0010 C   0  0  2  0  0  0  0  0  0  0  0  0
   -2.0112    4.5953   -0.4823 C   0  0  0  0  0  0  0  0  0  0  0  0
   -1.0767    3.6097   -1.1621 C   0  0  0  0  0  0  0  0  0  0  0  0
   -2.4414    6.8952   -0.0435 O   0  5  0  0  0  0  0  0  0  0  0  0
   -0.4137    1.1978   -2.9396 O   0  0  0  0  0  0  0  0  0  0  0  0
   -0.6148    6.3123   -1.2835 O   0  0  0  0  0  0  0  0  0  0  0  0
    1.7366   -2.6236    0.3115 O   0  0  0  0  0  0  0  0  0  0  0  0
    0.8723   -1.9366    2.4556 O   0  0  0  0  0  0  0  0  0  0  0  0
   -1.4575    1.7950    0.3941 O   0  0  0  0  0  0  0  0  0  0  0  0
    1.0494   -1.1380   -1.9129 H   0  0  0  0  0  0  0  0  0  0  0  0
   -0.7507    0.2882    2.5655 H   0  0  0  0  0  0  0  0  0  0  0  0
    1.2699   -3.8878    1.8848 H   0  0  0  0  0  0  0  0  0  0  0  0
    2.7003   -2.8551    2.1305 H   0  0  0  0  0  0  0  0  0  0  0  0
   -2.5862    2.0529   -1.3222 H   0  0  0  0  0  0  0  0  0  0  0  0
   -3.0082    4.4742   -0.9245 H   0  0  0  0  0  0  0  0  0  0  0  0
   -2.1014    4.3522    0.5839 H   0  0  0  0  0  0  0  0  0  0  0  0
   -0.0606    3.6867   -0.7739 H   0  0  0  0  0  0  0  0  0  0  0  0
   -1.0384    3.8223   -2.2318 H   0  0  0  0  0  0  0  0  0  0  0  0
  1  3  2  0  0  0  0
  1  4  1  0  0  0  0
  2  5  2  0  0  0  0
  2  6  1  0  0  0  0
  3  5  1  0  0  0  0
  3  7  1  0  0  0  0
  4  6  2  0  0  0  0
  4 16  1  0  0  0  0
  5 18  1  0  0  0  0
  6 17  1  0  0  0  0
  7 10  1  0  0  0  0
  7 14  2  0  0  0  0
  8 11  1  0  0  0  0
  8 13  1  0  0  0  0
  8 15  2  0  0  0  0
  9 16  1  0  0  0  0
  9 17  1  0  0  0  0
 10 12  1  0  0  0  0
 10 18  1  0  0  0  0
 11 12  1  0  0  0  0
  1 19  1  0  0  0  0
  2 20  1  0  0  0  0
  9 21  1  0  0  0  0
  9 22  1  0  0  0  0
 10 23  1  0  0  0  0
 11 24  1  0  0  0  0
 11 25  1  0  0  0  0
 12 26  1  0  0  0  0
 12 27  1  0  0  0  0
M  CHG  1  13  -1
M  END
$$$$
