@<TRIPOS>MOLECULE
AVX17685_0
   44    47     0     0     0
SMALL
NO_CHARGES

@<TRIPOS>ATOM
      1 C1         -0.9129    0.8768    2.8543 C.ar      1 MOL         0.0000
      2 C2         -1.8109    1.5847    2.0580 C.ar      1 MOL         0.0000
      3 C3          0.1514    0.1930    2.2689 C.ar      1 MOL         0.0000
      4 C4         -1.6448    1.6171    0.6725 C.ar      1 MOL         0.0000
      5 C5         -2.8640   -2.8807   -2.7464 C.ar      1 MOL         0.0000
      6 C6         -3.0786   -4.0614   -3.4614 C.ar      1 MOL         0.0000
      7 C7          0.3121    0.2117    0.8783 C.ar      1 MOL         0.0000
      8 C8         -1.8717   -1.8255   -4.7034 C.ar      1 MOL         0.0000
      9 C9         -0.5790    0.9389    0.0662 C.ar      1 MOL         0.0000
     10 C10        -2.2641   -1.7691   -3.3638 C.ar      1 MOL         0.0000
     11 C11        -2.6819   -4.0910   -4.7826 C.ar      1 MOL         0.0000
     12 C12        -2.0948   -3.0030   -5.3870 C.ar      1 MOL         0.0000
     13 C13         1.4688   -0.5195    0.3002 C.2       1 MOL         0.0000
     14 C14        -1.2427   -0.6756   -5.3729 C.2       1 MOL         0.0000
     15 C15        -0.4028    1.0007   -1.4264 C.3       1 MOL         0.0000
     16 C16        -0.0811   -1.5198   -1.4068 C.3       1 MOL         0.0000
     17 C17        -2.2371   -4.6022   -6.8375 C.3       1 MOL         0.0000
     18 C18         2.3717   -1.8681   -1.5691 C.3       1 MOL         0.0000
     19 C19        -2.0549   -0.5234   -2.5542 C.3       1 MOL         0.0000
     20 N1          1.2500   -1.2662   -0.8644 N.am      1 MOL         0.0000
     21 N2         -0.6200   -0.3174   -2.1491 N.4       1 MOL         0.0000
     22 O1         -1.9957    0.1825   -5.9692 O.co2     1 MOL         0.0000
     23 O2          2.5525   -0.4087    0.8716 O.2       1 MOL         0.0000
     24 O3          0.0401   -0.5653   -5.3410 O.co2     1 MOL         0.0000
     25 O4         -2.8101   -5.1470   -5.6313 O.3       1 MOL         0.0000
     26 O5         -1.7816   -3.2417   -6.6896 O.3       1 MOL         0.0000
     27 H1         -1.0430    0.8573    3.9324 H         1 MOL         0.0000
     28 H2         -2.6399    2.1159    2.5166 H         1 MOL         0.0000
     29 H3          0.8393   -0.3577    2.9052 H         1 MOL         0.0000
     30 H4         -2.3530    2.1803    0.0696 H         1 MOL         0.0000
     31 H5         -3.1670   -2.8285   -1.7033 H         1 MOL         0.0000
     32 H6         -3.5408   -4.9208   -2.9892 H         1 MOL         0.0000
     33 H7         -1.0682    1.7394   -1.8886 H         1 MOL         0.0000
     34 H8          0.6193    1.3208   -1.6654 H         1 MOL         0.0000
     35 H9         -0.0527   -2.3560   -2.1139 H         1 MOL         0.0000
     36 H10        -0.7779   -1.7572   -0.5950 H         1 MOL         0.0000
     37 H11        -1.3867   -5.2264   -7.1350 H         1 MOL         0.0000
     38 H12        -2.9926   -4.6350   -7.6309 H         1 MOL         0.0000
     39 H13         2.5594   -2.8746   -1.1862 H         1 MOL         0.0000
     40 H14         3.2730   -1.2649   -1.4301 H         1 MOL         0.0000
     41 H15         2.1550   -1.9332   -2.6387 H         1 MOL         0.0000
     42 H16        -2.3545    0.3684   -3.1151 H         1 MOL         0.0000
     43 H17        -2.6421   -0.5492   -1.6299 H         1 MOL         0.0000
     44 H18        -0.0826   -0.2516   -3.0240 H         1 MOL         0.0000
@<TRIPOS>BOND
     1    1    2 ar
     2    1    3 ar
     3    2    4 ar
     4    3    7 ar
     5    4    9 ar
     6    5    6 ar
     7    5   10 ar
     8    6   11 ar
     9    7    9 ar
    10    7   13 1
    11    8   10 ar
    12    8   12 ar
    13    8   14 1
    14    9   15 1
    15   10   19 1
    16   11   12 ar
    17   11   25 1
    18   12   26 1
    19   13   20 am
    20   13   23 2
    21   14   22 1
    22   14   24 2
    23   15   21 1
    24   16   20 1
    25   16   21 1
    26   17   25 1
    27   17   26 1
    28   18   20 1
    29   19   21 1
    30    1   27 1
    31    2   28 1
    32    3   29 1
    33    4   30 1
    34    5   31 1
    35    6   32 1
    36   15   33 1
    37   15   34 1
    38   16   35 1
    39   16   36 1
    40   17   37 1
    41   17   38 1
    42   18   39 1
    43   18   40 1
    44   18   41 1
    45   19   42 1
    46   19   43 1
    47   21   44 1
