@<TRIPOS>MOLECULE
AVX17375_2
   38    41     0     0     0
SMALL
NO_CHARGES

@<TRIPOS>ATOM
      1 C1         -1.9204    0.9555    0.2371 C.ar      1 MOL         0.0000
      2 C2         -1.0710   -0.1533    0.1009 C.ar      1 MOL         0.0000
      3 C3         -3.3002    0.7836    0.3651 C.ar      1 MOL         0.0000
      4 C4         -1.5898   -1.4496    0.0889 C.ar      1 MOL         0.0000
      5 C5         -5.6429   -5.2342   -1.1902 C.ar      1 MOL         0.0000
      6 C6         -6.0570   -6.5683   -1.1799 C.ar      1 MOL         0.0000
      7 C7         -3.3053   -5.9148   -1.1660 C.ar      1 MOL         0.0000
      8 C8         -3.8051   -0.5062    0.3639 C.ar      1 MOL         0.0000
      9 C9         -2.9600   -1.6126    0.2208 C.ar      1 MOL         0.0000
     10 C10        -4.2750   -4.9093   -1.1834 C.ar      1 MOL         0.0000
     11 C11        -5.0796   -7.5420   -1.1627 C.ar      1 MOL         0.0000
     12 C12        -3.7406   -7.2240   -1.1561 C.ar      1 MOL         0.0000
     13 C13        -1.8675   -5.6011   -1.1595 C.2       1 MOL         0.0000
     14 C14        -5.2395   -0.9289    0.4558 C.3       1 MOL         0.0000
     15 C15        -3.9363   -9.3788   -1.1361 C.3       1 MOL         0.0000
     16 C16        -3.7410   -2.8990    0.2166 C.3       1 MOL         0.0000
     17 C17        -5.0962   -2.4238    0.7918 C.3       1 MOL         0.0000
     18 C18        -3.8789   -3.4574   -1.1952 C.3       1 MOL         0.0000
     19 O1         -1.2540   -5.4814   -2.2857 O.co2     1 MOL         0.0000
     20 O2         -1.2695   -5.4568   -0.0280 O.co2     1 MOL         0.0000
     21 O3         -5.2917   -8.8861   -1.1514 O.3       1 MOL         0.0000
     22 O4         -2.9469   -8.3293   -1.1396 O.3       1 MOL         0.0000
     23 O5         -5.0816   -2.5609    2.2158 O.3       1 MOL         0.0000
     24 H1         -1.4991    1.9572    0.2394 H         1 MOL         0.0000
     25 H2         -0.0000   -0.0000   -0.0004 H         1 MOL         0.0000
     26 H3         -3.9556    1.6424    0.4627 H         1 MOL         0.0000
     27 H4         -0.9316   -2.3045   -0.0232 H         1 MOL         0.0000
     28 H5         -6.3914   -4.4454   -1.2042 H         1 MOL         0.0000
     29 H6         -7.1106   -6.8231   -1.1851 H         1 MOL         0.0000
     30 H7         -5.7728   -0.3755    1.2343 H         1 MOL         0.0000
     31 H8         -5.7207   -0.7871   -0.5174 H         1 MOL         0.0000
     32 H9         -3.7955   -9.9906   -0.2377 H         1 MOL         0.0000
     33 H10        -3.7820  -10.0093   -2.0194 H         1 MOL         0.0000
     34 H11        -3.2643   -3.6324    0.8769 H         1 MOL         0.0000
     35 H12        -5.9502   -3.0027    0.4250 H         1 MOL         0.0000
     36 H13        -2.9319   -3.3348   -1.7323 H         1 MOL         0.0000
     37 H14        -4.6222   -2.8738   -1.7497 H         1 MOL         0.0000
     38 H15        -4.9908   -3.5079    2.3957 H         1 MOL         0.0000
@<TRIPOS>BOND
     1    1    2 ar
     2    1    3 ar
     3    2    4 ar
     4    3    8 ar
     5    4    9 ar
     6    5    6 ar
     7    5   10 ar
     8    6   11 ar
     9    7   10 ar
    10    7   12 ar
    11    7   13 1
    12    8    9 ar
    13    8   14 1
    14    9   16 1
    15   10   18 1
    16   11   12 ar
    17   11   21 1
    18   12   22 1
    19   13   19 1
    20   13   20 2
    21   14   17 1
    22   15   21 1
    23   15   22 1
    24   16   17 1
    25   16   18 1
    26   17   23 1
    27    1   24 1
    28    2   25 1
    29    3   26 1
    30    4   27 1
    31    5   28 1
    32    6   29 1
    33   14   30 1
    34   14   31 1
    35   15   32 1
    36   15   33 1
    37   16   34 1
    38   17   35 1
    39   18   36 1
    40   18   37 1
    41   23   38 1
