AVX17261_0
  -OEChem-04011314523D

 26 27  0     1  0  0  0  0  0999 V2000
    0.5325   -0.4340    3.2886 C   0  0  0  0  0  0  0  0  0  0  0  0
   -0.8431   -0.2988    3.1607 C   0  0  0  0  0  0  0  0  0  0  0  0
    1.3404   -0.4145    2.1511 C   0  0  0  0  0  0  0  0  0  0  0  0
   -1.4067   -0.1491    1.8959 C   0  0  0  0  0  0  0  0  0  0  0  0
    0.7961   -0.2497    0.8614 C   0  0  0  0  0  0  0  0  0  0  0  0
   -0.6006   -0.1339    0.7438 C   0  0  0  0  0  0  0  0  0  0  0  0
    0.3952    0.6531   -2.1666 C   0  0  0  0  0  0  0  0  0  0  0  0
    1.7595   -0.2948   -0.2949 C   0  0  0  0  0  0  0  0  0  0  0  0
   -0.6640   -0.3693   -1.7915 C   0  0  2  0  0  0  0  0  0  0  0  0
   -1.7420   -0.4650   -2.8698 C   0  0  0  0  0  0  0  0  0  0  0  0
    1.4938    0.6757   -1.3357 N   0  0  0  0  0  0  0  0  0  0  0  0
   -1.3353    0.0576   -0.5239 N   0  3  0  0  0  0  0  0  0  0  0  0
    0.2742    1.4227   -3.1190 O   0  0  0  0  0  0  0  0  0  0  0  0
    0.9796   -0.5575    4.2705 H   0  0  0  0  0  0  0  0  0  0  0  0
   -1.4775   -0.3112    4.0418 H   0  0  0  0  0  0  0  0  0  0  0  0
    2.4147   -0.5321    2.2798 H   0  0  0  0  0  0  0  0  0  0  0  0
   -2.4864   -0.0421    1.8148 H   0  0  0  0  0  0  0  0  0  0  0  0
    2.7794   -0.0845    0.0476 H   0  0  0  0  0  0  0  0  0  0  0  0
    1.7668   -1.2987   -0.7333 H   0  0  0  0  0  0  0  0  0  0  0  0
   -0.2409   -1.3677   -1.6423 H   0  0  0  0  0  0  0  0  0  0  0  0
   -2.1816    0.5163   -3.0397 H   0  0  0  0  0  0  0  0  0  0  0  0
   -2.5214   -1.1551   -2.5516 H   0  0  0  0  0  0  0  0  0  0  0  0
   -1.3033   -0.8254   -3.7987 H   0  0  0  0  0  0  0  0  0  0  0  0
    2.1653    1.4269   -1.4624 H   0  0  0  0  0  0  0  0  0  0  0  0
   -2.2196   -0.4633   -0.4298 H   0  0  0  0  0  0  0  0  0  0  0  0
   -1.5980    1.0526   -0.5769 H   0  0  0  0  0  0  0  0  0  0  0  0
  1  2  2  0  0  0  0
  1  3  1  0  0  0  0
  2  4  1  0  0  0  0
  3  5  2  0  0  0  0
  4  6  2  0  0  0  0
  5  6  1  0  0  0  0
  5  8  1  0  0  0  0
  6 12  1  0  0  0  0
  7  9  1  0  0  0  0
  7 11  1  0  0  0  0
  7 13  2  0  0  0  0
  8 11  1  0  0  0  0
  9 10  1  0  0  0  0
  9 12  1  0  0  0  0
  1 14  1  0  0  0  0
  2 15  1  0  0  0  0
  3 16  1  0  0  0  0
  4 17  1  0  0  0  0
  8 18  1  0  0  0  0
  8 19  1  0  0  0  0
  9 20  1  0  0  0  0
 10 21  1  0  0  0  0
 10 22  1  0  0  0  0
 10 23  1  0  0  0  0
 11 24  1  0  0  0  0
 12 25  1  0  0  0  0
 12 26  1  0  0  0  0
M  CHG  1  12   1
M  END
$$$$
