@<TRIPOS>MOLECULE
AVX17264_1
   33    34     0     0     0
SMALL
NO_CHARGES

@<TRIPOS>ATOM
      1 C1          2.3907    1.4492    1.1589 C.ar      1 MOL         0.0000
      2 C2          2.3014    0.2186    1.8056 C.ar      1 MOL         0.0000
      3 C3          1.3686    1.8684    0.3043 C.ar      1 MOL         0.0000
      4 C4          1.1898   -0.5955    1.6012 C.ar      1 MOL         0.0000
      5 C5          0.2423    1.0621    0.0837 C.ar      1 MOL         0.0000
      6 C6          0.1687   -0.1723    0.7440 C.ar      1 MOL         0.0000
      7 C7         -0.8476    1.5246   -0.8480 C.3       1 MOL         0.0000
      8 C8         -1.7823   -0.5440   -1.7582 C.3       1 MOL         0.0000
      9 C9         -1.1037   -1.5757   -0.8451 C.3       1 MOL         0.0000
     10 C10        -1.9219   -5.3125   -0.2560 C.3       1 MOL         0.0000
     11 C11        -1.9373   -2.8550   -0.7781 C.3       1 MOL         0.0000
     12 C12        -1.0874   -4.0450   -0.3476 C.3       1 MOL         0.0000
     13 N1         -0.9943    0.6637   -2.0239 N.3       1 MOL         0.0000
     14 N2         -0.9963   -1.0440    0.5557 N.4       1 MOL         0.0000
     15 H1          3.2575    2.0841    1.3185 H         1 MOL         0.0000
     16 H2          3.0973   -0.1052    2.4698 H         1 MOL         0.0000
     17 H3          1.4620    2.8319   -0.1909 H         1 MOL         0.0000
     18 H4          1.1296   -1.5526    2.1122 H         1 MOL         0.0000
     19 H5         -1.7928    1.6396   -0.3028 H         1 MOL         0.0000
     20 H6         -0.5984    2.5296   -1.2116 H         1 MOL         0.0000
     21 H7         -1.9598   -1.0205   -2.7304 H         1 MOL         0.0000
     22 H8         -2.7731   -0.2703   -1.3722 H         1 MOL         0.0000
     23 H9         -0.0944   -1.8281   -1.1952 H         1 MOL         0.0000
     24 H10        -2.7471   -5.1885    0.4526 H         1 MOL         0.0000
     25 H11        -1.3041   -6.1494    0.0847 H         1 MOL         0.0000
     26 H12        -2.3431   -5.5764   -1.2314 H         1 MOL         0.0000
     27 H13        -2.7593   -2.7026   -0.0731 H         1 MOL         0.0000
     28 H14        -2.3766   -3.0404   -1.7624 H         1 MOL         0.0000
     29 H15        -0.2719   -4.2024   -1.0635 H         1 MOL         0.0000
     30 H16        -0.6285   -3.8451    0.6277 H         1 MOL         0.0000
     31 H17        -1.4757    1.1959   -2.7499 H         1 MOL         0.0000
     32 H18        -0.9203   -1.8219    1.2264 H         1 MOL         0.0000
     33 H19        -1.8425   -0.5233    0.8263 H         1 MOL         0.0000
@<TRIPOS>BOND
     1    1    2 ar
     2    1    3 ar
     3    2    4 ar
     4    3    5 ar
     5    4    6 ar
     6    5    6 ar
     7    5    7 1
     8    6   14 1
     9    7   13 1
    10    8    9 1
    11    8   13 1
    12    9   11 1
    13    9   14 1
    14   10   12 1
    15   11   12 1
    16    1   15 1
    17    2   16 1
    18    3   17 1
    19    4   18 1
    20    7   19 1
    21    7   20 1
    22    8   21 1
    23    8   22 1
    24    9   23 1
    25   10   24 1
    26   10   25 1
    27   10   26 1
    28   11   27 1
    29   11   28 1
    30   12   29 1
    31   12   30 1
    32   13   31 1
    33   14   32 1
    34   14   33 1
