@<TRIPOS>MOLECULE
AVX17482_0
   31    33     0     0     0
SMALL
NO_CHARGES

@<TRIPOS>ATOM
      1 C1          2.6250   -0.3239    0.6896 C.ar      1 MOL         0.0000
      2 C2          1.9389   -1.5361    0.8582 C.ar      1 MOL         0.0000
      3 C3          1.9344    0.8425    0.3570 C.ar      1 MOL         0.0000
      4 C4          0.5528   -1.5992    0.6959 C.ar      1 MOL         0.0000
      5 C5         -6.1556   -0.7739   -0.3797 C.2       1 MOL         0.0000
      6 C6          0.5615    0.7680    0.1856 C.ar      1 MOL         0.0000
      7 C7         -0.1274   -0.4411    0.3516 C.ar      1 MOL         0.0000
      8 C8         -5.6993   -0.5220   -1.6566 C.2       1 MOL         0.0000
      9 C9         -3.7925   -1.0832   -0.7298 C.2       1 MOL         0.0000
     10 C10        -6.6300   -0.0716   -2.7873 C.2       1 MOL         0.0000
     11 C11        -0.3792    1.8896   -0.1389 C.3       1 MOL         0.0000
     12 C12        -1.6076   -0.2363    0.1627 C.3       1 MOL         0.0000
     13 C13        -1.6244    1.1117   -0.5996 C.3       1 MOL         0.0000
     14 C14        -2.3252   -1.3721   -0.5528 C.3       1 MOL         0.0000
     15 N1         -4.3445   -0.6985   -1.8592 N.2       1 MOL         0.0000
     16 O1         -6.0920    0.1266   -3.9093 O.co2     1 MOL         0.0000
     17 O2         -7.8476    0.0593   -2.4910 O.co2     1 MOL         0.0000
     18 O3         -1.5488    0.8969   -2.0093 O.3       1 MOL         0.0000
     19 S1         -4.8440   -1.2536    0.6157 S.3       1 MOL         0.0000
     20 H1          3.7026   -0.2933    0.8258 H         1 MOL         0.0000
     21 H2          2.4917   -2.4329    1.1245 H         1 MOL         0.0000
     22 H3          2.4647    1.7812    0.2371 H         1 MOL         0.0000
     23 H4          0.0305   -2.5385    0.8442 H         1 MOL         0.0000
     24 H5         -7.1623   -0.7031    0.0077 H         1 MOL         0.0000
     25 H6         -0.5847    2.4633    0.7706 H         1 MOL         0.0000
     26 H7          0.0224    2.5380   -0.9232 H         1 MOL         0.0000
     27 H8         -2.0500   -0.0890    1.1544 H         1 MOL         0.0000
     28 H9         -2.5434    1.6751   -0.4066 H         1 MOL         0.0000
     29 H10        -2.1970   -2.3035    0.0113 H         1 MOL         0.0000
     30 H11        -1.8613   -1.5439   -1.5314 H         1 MOL         0.0000
     31 H12        -1.5145    1.7746   -2.4186 H         1 MOL         0.0000
@<TRIPOS>BOND
     1    1    2 ar
     2    1    3 ar
     3    2    4 ar
     4    3    6 ar
     5    4    7 ar
     6    5    8 2
     7    5   19 1
     8    6    7 ar
     9    6   11 1
    10    7   12 1
    11    8   10 1
    12    8   15 1
    13    9   14 1
    14    9   15 2
    15    9   19 1
    16   10   16 1
    17   10   17 2
    18   11   13 1
    19   12   13 1
    20   12   14 1
    21   13   18 1
    22    1   20 1
    23    2   21 1
    24    3   22 1
    25    4   23 1
    26    5   24 1
    27   11   25 1
    28   11   26 1
    29   12   27 1
    30   13   28 1
    31   14   29 1
    32   14   30 1
    33   18   31 1
