AVX17685_1
  -OEChem-04011314553D

 44 47  0     1  0  0  0  0  0999 V2000
    2.8253    0.7872   -1.3301 C   0  0  0  0  0  0  0  0  0  0  0  0
    2.4894   -0.3156   -2.1122 C   0  0  0  0  0  0  0  0  0  0  0  0
    2.0400    1.1282   -0.2301 C   0  0  0  0  0  0  0  0  0  0  0  0
    1.3699   -1.0859   -1.7935 C   0  0  0  0  0  0  0  0  0  0  0  0
   -3.0197   -4.2113   -0.3041 C   0  0  0  0  0  0  0  0  0  0  0  0
   -3.3160   -5.3675   -1.0298 C   0  0  0  0  0  0  0  0  0  0  0  0
    0.9081    0.3658    0.0838 C   0  0  0  0  0  0  0  0  0  0  0  0
   -4.1290   -2.8280   -1.9726 C   0  0  0  0  0  0  0  0  0  0  0  0
    0.5705   -0.7605   -0.6891 C   0  0  0  0  0  0  0  0  0  0  0  0
   -3.4239   -2.9488   -0.7727 C   0  0  0  0  0  0  0  0  0  0  0  0
   -4.0132   -5.2208   -2.2114 C   0  0  0  0  0  0  0  0  0  0  0  0
   -4.4090   -3.9851   -2.6701 C   0  0  0  0  0  0  0  0  0  0  0  0
    0.1093    0.7656    1.2706 C   0  0  0  0  0  0  0  0  0  0  0  0
   -4.5642   -1.5185   -2.4842 C   0  0  0  0  0  0  0  0  0  0  0  0
   -0.6184   -1.6151   -0.3465 C   0  0  0  0  0  0  0  0  0  0  0  0
   -1.9798    0.5208   -0.1086 C   0  0  0  0  0  0  0  0  0  0  0  0
   -5.0658   -5.4863   -4.0832 C   0  0  0  0  0  0  0  0  0  0  0  0
   -2.1153    1.0452    2.3158 C   0  0  0  0  0  0  0  0  0  0  0  0
   -3.0821   -1.7365    0.0425 C   0  0  0  0  0  0  0  0  0  0  0  0
   -1.2871    0.7410    1.1581 N   0  0  0  0  0  0  0  0  0  0  0  0
   -1.9566   -0.9293   -0.5451 N   0  3  2  0  0  0  0  0  0  0  0  0
   -5.7214   -1.0713   -2.1382 O   0  5  0  0  0  0  0  0  0  0  0  0
    0.7267    1.0892    2.2844 O   0  0  0  0  0  0  0  0  0  0  0  0
   -3.7738   -0.8628   -3.2614 O   0  0  0  0  0  0  0  0  0  0  0  0
   -4.3895   -6.2270   -3.0467 O   0  0  0  0  0  0  0  0  0  0  0  0
   -5.0823   -4.0630   -3.8501 O   0  0  0  0  0  0  0  0  0  0  0  0
    3.7002    1.3812   -1.5770 H   0  0  0  0  0  0  0  0  0  0  0  0
    3.0974   -0.5747   -2.9741 H   0  0  0  0  0  0  0  0  0  0  0  0
    2.3267    1.9819    0.3791 H   0  0  0  0  0  0  0  0  0  0  0  0
    1.1240   -1.9419   -2.4175 H   0  0  0  0  0  0  0  0  0  0  0  0
   -2.4715   -4.2967    0.6312 H   0  0  0  0  0  0  0  0  0  0  0  0
   -3.0062   -6.3428   -0.6721 H   0  0  0  0  0  0  0  0  0  0  0  0
   -0.6283   -2.5074   -0.9816 H   0  0  0  0  0  0  0  0  0  0  0  0
   -0.5838   -1.9723    0.6870 H   0  0  0  0  0  0  0  0  0  0  0  0
   -3.0320    0.8294   -0.0185 H   0  0  0  0  0  0  0  0  0  0  0  0
   -1.5086    1.1101   -0.9088 H   0  0  0  0  0  0  0  0  0  0  0  0
   -4.5628   -5.6796   -5.0377 H   0  0  0  0  0  0  0  0  0  0  0  0
   -6.1000   -5.8427   -4.1515 H   0  0  0  0  0  0  0  0  0  0  0  0
   -2.3257    2.1171    2.3559 H   0  0  0  0  0  0  0  0  0  0  0  0
   -1.6013    0.7529    3.2355 H   0  0  0  0  0  0  0  0  0  0  0  0
   -3.0625    0.5026    2.2561 H   0  0  0  0  0  0  0  0  0  0  0  0
   -3.9410   -1.0624    0.1288 H   0  0  0  0  0  0  0  0  0  0  0  0
   -2.7736   -2.0154    1.0558 H   0  0  0  0  0  0  0  0  0  0  0  0
   -2.1134   -0.9287   -1.5680 H   0  0  0  0  0  0  0  0  0  0  0  0
  1  2  2  0  0  0  0
  1  3  1  0  0  0  0
  2  4  1  0  0  0  0
  3  7  2  0  0  0  0
  4  9  2  0  0  0  0
  5  6  1  0  0  0  0
  5 10  2  0  0  0  0
  6 11  2  0  0  0  0
  7  9  1  0  0  0  0
  7 13  1  0  0  0  0
  8 10  1  0  0  0  0
  8 12  2  0  0  0  0
  8 14  1  0  0  0  0
  9 15  1  0  0  0  0
 10 19  1  0  0  0  0
 11 12  1  0  0  0  0
 11 25  1  0  0  0  0
 12 26  1  0  0  0  0
 13 20  1  0  0  0  0
 13 23  2  0  0  0  0
 14 22  1  0  0  0  0
 14 24  2  0  0  0  0
 15 21  1  0  0  0  0
 16 20  1  0  0  0  0
 16 21  1  0  0  0  0
 17 25  1  0  0  0  0
 17 26  1  0  0  0  0
 18 20  1  0  0  0  0
 19 21  1  0  0  0  0
  1 27  1  0  0  0  0
  2 28  1  0  0  0  0
  3 29  1  0  0  0  0
  4 30  1  0  0  0  0
  5 31  1  0  0  0  0
  6 32  1  0  0  0  0
 15 33  1  0  0  0  0
 15 34  1  0  0  0  0
 16 35  1  0  0  0  0
 16 36  1  0  0  0  0
 17 37  1  0  0  0  0
 17 38  1  0  0  0  0
 18 39  1  0  0  0  0
 18 40  1  0  0  0  0
 18 41  1  0  0  0  0
 19 42  1  0  0  0  0
 19 43  1  0  0  0  0
 21 44  1  0  0  0  0
M  CHG  2  21   1  22  -1
M  END
$$$$
