@<TRIPOS>MOLECULE
AVX17587_2
   59    62     0     0     0
SMALL
NO_CHARGES

@<TRIPOS>ATOM
      1 C1         -2.0130    1.1304   -1.6264 C.ar      1 MOL         0.0000
      2 C2         -1.6942    2.0339   -0.6017 C.ar      1 MOL         0.0000
      3 C3         -1.3986   -0.1214   -1.6859 C.ar      1 MOL         0.0000
      4 C4         -0.7561    1.6986    0.3777 C.ar      1 MOL         0.0000
      5 C5          2.4932   -0.4707    3.8094 C.ar      1 MOL         0.0000
      6 C6          3.3824   -1.1217    4.6679 C.ar      1 MOL         0.0000
      7 C7          4.3021    0.0595    2.2684 C.ar      1 MOL         0.0000
      8 C8         -0.4605   -0.4407   -0.7175 C.ar      1 MOL         0.0000
      9 C9         -0.1380    0.4594    0.3068 C.ar      1 MOL         0.0000
     10 C10         2.9503    0.1164    2.6165 C.ar      1 MOL         0.0000
     11 C11         4.7118   -1.1637    4.3010 C.ar      1 MOL         0.0000
     12 C12         5.1593   -0.5891    3.1333 C.ar      1 MOL         0.0000
     13 C13         4.8055    0.6652    1.0252 C.2       1 MOL         0.0000
     14 C14         2.9458   -3.2328    0.7381 C.2       1 MOL         0.0000
     15 C15         0.2911   -1.7253   -0.5655 C.3       1 MOL         0.0000
     16 C16         6.8471   -1.4806    4.1523 C.3       1 MOL         0.0000
     17 C17         0.8646   -0.1477    1.2506 C.3       1 MOL         0.0000
     18 C18         1.4297   -1.2961    0.3775 C.3       1 MOL         0.0000
     19 C19         1.9534    0.8064    1.7243 C.3       1 MOL         0.0000
     20 C20         3.2340   -4.3225    1.7579 C.3       1 MOL         0.0000
     21 C21         4.3559   -5.2732    1.3430 C.3       1 MOL         0.0000
     22 C22         4.6244   -6.3540    2.3961 C.3       1 MOL         0.0000
     23 C23         5.7695   -7.2745    1.9624 C.3       1 MOL         0.0000
     24 C24         6.0890   -8.3647    2.9778 C.3       1 MOL         0.0000
     25 N1          1.9216   -2.3975    1.1602 N.am      1 MOL         0.0000
     26 N2          4.9112   -9.2362    3.1989 N.4       1 MOL         0.0000
     27 O1          4.8363   -0.0508   -0.0450 O.co2     1 MOL         0.0000
     28 O2          5.1992    1.8913    1.0481 O.co2     1 MOL         0.0000
     29 O3          3.5435   -3.1363   -0.3303 O.2       1 MOL         0.0000
     30 O4          5.7166   -1.7508    5.0063 O.3       1 MOL         0.0000
     31 O5          6.5003   -0.7441    2.9616 O.3       1 MOL         0.0000
     32 H1         -2.7498    1.4064   -2.3760 H         1 MOL         0.0000
     33 H2         -2.1879    3.0013   -0.5663 H         1 MOL         0.0000
     34 H3         -1.6542   -0.8234   -2.4723 H         1 MOL         0.0000
     35 H4         -0.5282    2.3982    1.1746 H         1 MOL         0.0000
     36 H5          1.4392   -0.4224    4.0729 H         1 MOL         0.0000
     37 H6          3.0340   -1.5757    5.5886 H         1 MOL         0.0000
     38 H7         -0.3540   -2.4884   -0.1161 H         1 MOL         0.0000
     39 H8          0.6841   -2.0923   -1.5187 H         1 MOL         0.0000
     40 H9          7.5853   -0.9024    4.7199 H         1 MOL         0.0000
     41 H10         7.2989   -2.4342    3.8560 H         1 MOL         0.0000
     42 H11         0.3271   -0.5529    2.1183 H         1 MOL         0.0000
     43 H12         2.2739   -0.9327   -0.2262 H         1 MOL         0.0000
     44 H13         1.4981    1.6483    2.2583 H         1 MOL         0.0000
     45 H14         2.4673    1.2377    0.8577 H         1 MOL         0.0000
     46 H15         3.4652   -3.8622    2.7257 H         1 MOL         0.0000
     47 H16         2.3083   -4.8985    1.8791 H         1 MOL         0.0000
     48 H17         4.0674   -5.7594    0.4029 H         1 MOL         0.0000
     49 H18         5.2760   -4.7115    1.1420 H         1 MOL         0.0000
     50 H19         3.7154   -6.9484    2.5491 H         1 MOL         0.0000
     51 H20         4.8670   -5.8824    3.3540 H         1 MOL         0.0000
     52 H21         5.4986   -7.7594    1.0164 H         1 MOL         0.0000
     53 H22         6.6677   -6.6765    1.7642 H         1 MOL         0.0000
     54 H23         6.9089   -9.0093    2.6476 H         1 MOL         0.0000
     55 H24         6.3400   -7.9291    3.9494 H         1 MOL         0.0000
     56 H25         1.4984   -2.5726    2.0669 H         1 MOL         0.0000
     57 H26         4.2018   -9.0887    2.4723 H         1 MOL         0.0000
     58 H27         4.4755   -9.0426    4.1079 H         1 MOL         0.0000
     59 H28         5.1775  -10.2272    3.1823 H         1 MOL         0.0000
@<TRIPOS>BOND
     1    1    2 ar
     2    1    3 ar
     3    2    4 ar
     4    3    8 ar
     5    4    9 ar
     6    5    6 ar
     7    5   10 ar
     8    6   11 ar
     9    7   10 ar
    10    7   12 ar
    11    7   13 1
    12    8    9 ar
    13    8   15 1
    14    9   17 1
    15   10   19 1
    16   11   12 ar
    17   11   30 1
    18   12   31 1
    19   13   27 1
    20   13   28 2
    21   14   20 1
    22   14   25 am
    23   14   29 2
    24   15   18 1
    25   16   30 1
    26   16   31 1
    27   17   18 1
    28   17   19 1
    29   18   25 1
    30   20   21 1
    31   21   22 1
    32   22   23 1
    33   23   24 1
    34   24   26 1
    35    1   32 1
    36    2   33 1
    37    3   34 1
    38    4   35 1
    39    5   36 1
    40    6   37 1
    41   15   38 1
    42   15   39 1
    43   16   40 1
    44   16   41 1
    45   17   42 1
    46   18   43 1
    47   19   44 1
    48   19   45 1
    49   20   46 1
    50   20   47 1
    51   21   48 1
    52   21   49 1
    53   22   50 1
    54   22   51 1
    55   23   52 1
    56   23   53 1
    57   24   54 1
    58   24   55 1
    59   25   56 1
    60   26   57 1
    61   26   58 1
    62   26   59 1
