@<TRIPOS>MOLECULE
AVX17288_0
   42    44     0     0     0
SMALL
NO_CHARGES

@<TRIPOS>ATOM
      1 C1         10.5053   -1.0074    3.2930 C.ar      1 MOL         0.0000
      2 C2         10.2440    0.2765    2.8145 C.ar      1 MOL         0.0000
      3 C3          9.4956   -1.9698    3.2952 C.ar      1 MOL         0.0000
      4 C4          8.9730    0.5980    2.3383 C.ar      1 MOL         0.0000
      5 C5          5.0480    0.6319    0.5889 C.2       1 MOL         0.0000
      6 C6          8.2246   -1.6483    2.8190 C.ar      1 MOL         0.0000
      7 C7          7.9633   -0.3644    2.3405 C.ar      1 MOL         0.0000
      8 C8          4.6250    0.2938    1.8884 C.2       1 MOL         0.0000
      9 C9          6.4047    0.4180    0.6029 C.2       1 MOL         0.0000
     10 C10         7.1783   -2.6891    2.8357 C.2       1 MOL         0.0000
     11 C11         0.9102   -3.4012    2.4644 C.3       1 MOL         0.0000
     12 C12        -0.0654   -2.8808    1.4162 C.3       1 MOL         0.0000
     13 C13         1.0697   -2.3843    3.5914 C.3       1 MOL         0.0000
     14 C14         0.3277   -1.4814    0.9648 C.3       1 MOL         0.0000
     15 C15         1.3941   -0.9944    3.0453 C.3       1 MOL         0.0000
     16 C16         7.4147    0.5931   -0.4592 C.3       1 MOL         0.0000
     17 C17         3.2289    0.3417    2.4362 C.3       1 MOL         0.0000
     18 N1          5.6314   -0.1048    2.6709 N.2       1 MOL         0.0000
     19 N2          6.7003   -0.0185    1.8608 N.pl3     1 MOL         0.0000
     20 O1          6.4360   -2.7992    3.8800 O.co2     1 MOL         0.0000
     21 O2          7.0477   -3.4475    1.8055 O.co2     1 MOL         0.0000
     22 O3          0.4252   -0.5899    2.0751 O.3       1 MOL         0.0000
     23 O4          2.7218   -0.9813    2.5290 O.3       1 MOL         0.0000
     24 H1         11.4948   -1.2578    3.6639 H         1 MOL         0.0000
     25 H2         11.0308    1.0257    2.8138 H         1 MOL         0.0000
     26 H3          9.7105   -2.9669    3.6711 H         1 MOL         0.0000
     27 H4          8.7842    1.6035    1.9696 H         1 MOL         0.0000
     28 H5          4.4527    0.9825   -0.2419 H         1 MOL         0.0000
     29 H6          0.5555   -4.3561    2.8677 H         1 MOL         0.0000
     30 H7          1.8841   -3.5914    1.9972 H         1 MOL         0.0000
     31 H8         -0.1030   -3.5615    0.5594 H         1 MOL         0.0000
     32 H9         -1.0691   -2.8475    1.8576 H         1 MOL         0.0000
     33 H10         0.1270   -2.3380    4.1503 H         1 MOL         0.0000
     34 H11         1.8550   -2.7217    4.2769 H         1 MOL         0.0000
     35 H12         1.2774   -1.4921    0.4176 H         1 MOL         0.0000
     36 H13        -0.4342   -1.0836    0.2867 H         1 MOL         0.0000
     37 H14         1.3536   -0.2753    3.8708 H         1 MOL         0.0000
     38 H15         7.8365    1.6114   -0.4423 H         1 MOL         0.0000
     39 H16         8.2518   -0.1182   -0.3555 H         1 MOL         0.0000
     40 H17         6.9922    0.4219   -1.4641 H         1 MOL         0.0000
     41 H18         3.2138    0.8006    3.4307 H         1 MOL         0.0000
     42 H19         2.5764    0.9316    1.7835 H         1 MOL         0.0000
@<TRIPOS>BOND
     1    1    2 ar
     2    1    3 ar
     3    2    4 ar
     4    3    6 ar
     5    4    7 ar
     6    5    8 1
     7    5    9 2
     8    6    7 ar
     9    6   10 1
    10    7   19 1
    11    8   17 1
    12    8   18 2
    13    9   16 1
    14    9   19 1
    15   10   20 1
    16   10   21 2
    17   11   12 1
    18   11   13 1
    19   12   14 1
    20   13   15 1
    21   14   22 1
    22   15   22 1
    23   15   23 1
    24   17   23 1
    25   18   19 1
    26    1   24 1
    27    2   25 1
    28    3   26 1
    29    4   27 1
    30    5   28 1
    31   11   29 1
    32   11   30 1
    33   12   31 1
    34   12   32 1
    35   13   33 1
    36   13   34 1
    37   14   35 1
    38   14   36 1
    39   15   37 1
    40   16   38 1
    41   16   39 1
    42   16   40 1
    43   17   41 1
    44   17   42 1
