AVX101123_1
  -OEChem-04011314513D

 55 57  0     1  0  0  0  0  0999 V2000
    5.1935   -2.0654   -0.8997 C   0  0  0  0  0  0  0  0  0  0  0  0
    4.6963   -0.8394   -0.4579 C   0  0  0  0  0  0  0  0  0  0  0  0
    5.2067   -3.1635   -0.0396 C   0  0  0  0  0  0  0  0  0  0  0  0
    4.2123   -0.7113    0.8440 C   0  0  0  0  0  0  0  0  0  0  0  0
    4.7227   -3.0355    1.2624 C   0  0  0  0  0  0  0  0  0  0  0  0
    6.8582   -2.6534    3.7803 C   0  0  0  0  0  0  0  0  0  0  0  0
    7.7168   -3.6976    4.1322 C   0  0  0  0  0  0  0  0  0  0  0  0
    5.3965   -3.1652    5.6590 C   0  0  0  0  0  0  0  0  0  0  0  0
    4.2255   -1.8094    1.7042 C   0  0  0  0  0  0  0  0  0  0  0  0
    5.7047   -2.3887    4.5394 C   0  0  0  0  0  0  0  0  0  0  0  0
    7.3897   -4.4492    5.2421 C   0  0  0  0  0  0  0  0  0  0  0  0
    6.2607   -4.1900    5.9851 C   0  0  0  0  0  0  0  0  0  0  0  0
    4.1960   -2.9079    6.4706 C   0  0  0  0  0  0  0  0  0  0  0  0
    0.6471   -1.6972    4.4960 C   0  0  0  0  0  0  0  0  0  0  0  0
    7.2951   -5.8724    6.8692 C   0  0  0  0  0  0  0  0  0  0  0  0
    4.8072   -1.2481    4.1183 C   0  0  0  0  0  0  0  0  0  0  0  0
    0.0391   -1.6852    5.8891 C   0  0  0  0  0  0  0  0  0  0  0  0
   -1.1694   -2.6077    6.0417 C   0  0  0  0  0  0  0  0  0  0  0  0
   -1.7110   -2.6278    7.4742 C   0  0  0  0  0  0  0  0  0  0  0  0
    2.5206   -0.6797    3.2051 C   0  0  0  0  0  0  0  0  0  0  0  0
   -2.9305   -3.5319    7.5818 C   0  0  0  0  0  0  0  0  0  0  0  0
    3.6974   -1.6702    3.1262 C   0  0  1  0  0  0  0  0  0  0  0  0
    1.7388   -0.8453    4.4093 N   0  0  0  0  0  0  0  0  0  0  0  0
   -3.3935   -3.5576    8.9901 N   0  3  0  0  0  0  0  0  0  0  0  0
    4.2827   -2.0941    7.4650 O   0  5  0  0  0  0  0  0  0  0  0  0
    3.0980   -3.5053    6.1600 O   0  0  0  0  0  0  0  0  0  0  0  0
    0.2214   -2.3982    3.5822 O   0  0  0  0  0  0  0  0  0  0  0  0
    8.1024   -5.4990    5.7338 O   0  0  0  0  0  0  0  0  0  0  0  0
    6.1251   -5.0454    7.0349 O   0  0  0  0  0  0  0  0  0  0  0  0
    5.5690   -2.1653   -1.9139 H   0  0  0  0  0  0  0  0  0  0  0  0
    4.6849    0.0154   -1.1278 H   0  0  0  0  0  0  0  0  0  0  0  0
    5.5927   -4.1185   -0.3836 H   0  0  0  0  0  0  0  0  0  0  0  0
    3.8270    0.2479    1.1797 H   0  0  0  0  0  0  0  0  0  0  0  0
    4.7370   -3.8964    1.9255 H   0  0  0  0  0  0  0  0  0  0  0  0
    7.0911   -2.0440    2.9103 H   0  0  0  0  0  0  0  0  0  0  0  0
    8.6072   -3.9050    3.5497 H   0  0  0  0  0  0  0  0  0  0  0  0
    6.9743   -6.9130    6.7446 H   0  0  0  0  0  0  0  0  0  0  0  0
    7.9079   -5.7987    7.7750 H   0  0  0  0  0  0  0  0  0  0  0  0
    5.4135   -0.4344    3.6996 H   0  0  0  0  0  0  0  0  0  0  0  0
    4.3500   -0.8320    5.0264 H   0  0  0  0  0  0  0  0  0  0  0  0
   -0.2319   -0.6575    6.1582 H   0  0  0  0  0  0  0  0  0  0  0  0
    0.8239   -2.0118    6.5826 H   0  0  0  0  0  0  0  0  0  0  0  0
   -1.9642   -2.3123    5.3463 H   0  0  0  0  0  0  0  0  0  0  0  0
   -0.8657   -3.6249    5.7647 H   0  0  0  0  0  0  0  0  0  0  0  0
   -0.9273   -2.9802    8.1565 H   0  0  0  0  0  0  0  0  0  0  0  0
   -1.9769   -1.6125    7.7911 H   0  0  0  0  0  0  0  0  0  0  0  0
    2.8895    0.3515    3.2158 H   0  0  0  0  0  0  0  0  0  0  0  0
    1.8385   -0.7813    2.3547 H   0  0  0  0  0  0  0  0  0  0  0  0
   -2.7011   -4.5650    7.3044 H   0  0  0  0  0  0  0  0  0  0  0  0
   -3.7669   -3.1654    6.9794 H   0  0  0  0  0  0  0  0  0  0  0  0
    3.3131   -2.6498    3.4449 H   0  0  0  0  0  0  0  0  0  0  0  0
    2.0054   -0.2959    5.2209 H   0  0  0  0  0  0  0  0  0  0  0  0
   -3.5556   -2.6074    9.3413 H   0  0  0  0  0  0  0  0  0  0  0  0
   -2.6972   -4.0038    9.5975 H   0  0  0  0  0  0  0  0  0  0  0  0
   -4.2715   -4.0809    9.0791 H   0  0  0  0  0  0  0  0  0  0  0  0
  1  2  2  0  0  0  0
  1  3  1  0  0  0  0
  2  4  1  0  0  0  0
  3  5  2  0  0  0  0
  4  9  2  0  0  0  0
  5  9  1  0  0  0  0
  6  7  2  0  0  0  0
  6 10  1  0  0  0  0
  7 11  1  0  0  0  0
  8 10  2  0  0  0  0
  8 12  1  0  0  0  0
  8 13  1  0  0  0  0
  9 22  1  0  0  0  0
 10 16  1  0  0  0  0
 11 12  2  0  0  0  0
 11 28  1  0  0  0  0
 12 29  1  0  0  0  0
 13 25  1  0  0  0  0
 13 26  2  0  0  0  0
 14 17  1  0  0  0  0
 14 23  1  0  0  0  0
 14 27  2  0  0  0  0
 15 28  1  0  0  0  0
 15 29  1  0  0  0  0
 16 22  1  0  0  0  0
 17 18  1  0  0  0  0
 18 19  1  0  0  0  0
 19 21  1  0  0  0  0
 20 22  1  0  0  0  0
 20 23  1  0  0  0  0
 21 24  1  0  0  0  0
  1 30  1  0  0  0  0
  2 31  1  0  0  0  0
  3 32  1  0  0  0  0
  4 33  1  0  0  0  0
  5 34  1  0  0  0  0
  6 35  1  0  0  0  0
  7 36  1  0  0  0  0
 15 37  1  0  0  0  0
 15 38  1  0  0  0  0
 16 39  1  0  0  0  0
 16 40  1  0  0  0  0
 17 41  1  0  0  0  0
 17 42  1  0  0  0  0
 18 43  1  0  0  0  0
 18 44  1  0  0  0  0
 19 45  1  0  0  0  0
 19 46  1  0  0  0  0
 20 47  1  0  0  0  0
 20 48  1  0  0  0  0
 21 49  1  0  0  0  0
 21 50  1  0  0  0  0
 22 51  1  0  0  0  0
 23 52  1  0  0  0  0
 24 53  1  0  0  0  0
 24 54  1  0  0  0  0
 24 55  1  0  0  0  0
M  CHG  2  24   1  25  -1
M  END
$$$$
