@<TRIPOS>MOLECULE
AVX17687_0
   58    62     0     0     0
SMALL
NO_CHARGES

@<TRIPOS>ATOM
      1 C1         -0.9129    0.8768    2.8543 C.ar      1 MOL         0.0000
      2 C2         -1.8109    1.5847    2.0580 C.ar      1 MOL         0.0000
      3 C3          0.1514    0.1930    2.2689 C.ar      1 MOL         0.0000
      4 C4         -1.6448    1.6171    0.6725 C.ar      1 MOL         0.0000
      5 C5         -2.6731   -2.7598   -3.4841 C.ar      1 MOL         0.0000
      6 C6          2.4406   -2.1887   -4.0565 C.ar      1 MOL         0.0000
      7 C7          2.7251    0.0375   -3.1620 C.ar      1 MOL         0.0000
      8 C8         -2.8317   -3.6606   -4.5400 C.ar      1 MOL         0.0000
      9 C9          2.5749   -1.6859   -5.3506 C.ar      1 MOL         0.0000
     10 C10         2.8594    0.5403   -4.4561 C.ar      1 MOL         0.0000
     11 C11         0.3121    0.2117    0.8783 C.ar      1 MOL         0.0000
     12 C12        -1.8970   -1.0341   -5.0163 C.ar      1 MOL         0.0000
     13 C13        -0.5790    0.9389    0.0662 C.ar      1 MOL         0.0000
     14 C14         2.5156   -1.3270   -2.9621 C.ar      1 MOL         0.0000
     15 C15        -2.2086   -1.4541   -3.7209 C.ar      1 MOL         0.0000
     16 C16        -2.5170   -3.2209   -5.8094 C.ar      1 MOL         0.0000
     17 C17        -2.0623   -1.9429   -6.0413 C.ar      1 MOL         0.0000
     18 C18         2.7844   -0.3214   -5.5504 C.ar      1 MOL         0.0000
     19 C19         1.4688   -0.5195    0.3002 C.2       1 MOL         0.0000
     20 C20        -1.4100    0.3273   -5.2907 C.2       1 MOL         0.0000
     21 C21        -0.4028    1.0007   -1.4264 C.3       1 MOL         0.0000
     22 C22        -0.0811   -1.5198   -1.4068 C.3       1 MOL         0.0000
     23 C23        -2.1596   -2.9919   -7.9312 C.3       1 MOL         0.0000
     24 C24         2.8309   -0.7682   -7.8858 C.3       1 MOL         0.0000
     25 C25         2.3717   -1.8681   -1.5691 C.3       1 MOL         0.0000
     26 C26        -2.0549   -0.5234   -2.5542 C.3       1 MOL         0.0000
     27 N1          1.2500   -1.2662   -0.8644 N.am      1 MOL         0.0000
     28 N2         -0.6200   -0.3174   -2.1491 N.4       1 MOL         0.0000
     29 O1         -2.2682    1.2525   -5.5483 O.co2     1 MOL         0.0000
     30 O2          2.5525   -0.4087    0.8716 O.2       1 MOL         0.0000
     31 O3         -0.1415    0.5490   -5.2646 O.co2     1 MOL         0.0000
     32 O4         -2.6085   -3.9524   -6.9533 O.3       1 MOL         0.0000
     33 O5         -1.8119   -1.7143   -7.3592 O.3       1 MOL         0.0000
     34 O6          2.9167    0.1688   -6.8132 O.3       1 MOL         0.0000
     35 H1         -1.0430    0.8573    3.9324 H         1 MOL         0.0000
     36 H2         -2.6399    2.1159    2.5166 H         1 MOL         0.0000
     37 H3          0.8393   -0.3577    2.9052 H         1 MOL         0.0000
     38 H4         -2.3530    2.1803    0.0696 H         1 MOL         0.0000
     39 H5         -2.9139   -3.0787   -2.4728 H         1 MOL         0.0000
     40 H6          2.2776   -3.2531   -3.9101 H         1 MOL         0.0000
     41 H7          2.7848    0.7164   -2.3152 H         1 MOL         0.0000
     42 H8         -3.1897   -4.6681   -4.3618 H         1 MOL         0.0000
     43 H9          2.5158   -2.3624   -6.1991 H         1 MOL         0.0000
     44 H10         3.0227    1.6040   -4.6051 H         1 MOL         0.0000
     45 H11        -1.0682    1.7394   -1.8886 H         1 MOL         0.0000
     46 H12         0.6193    1.3208   -1.6654 H         1 MOL         0.0000
     47 H13        -0.0527   -2.3560   -2.1139 H         1 MOL         0.0000
     48 H14        -0.7779   -1.7572   -0.5950 H         1 MOL         0.0000
     49 H15        -1.2799   -3.3979   -8.4436 H         1 MOL         0.0000
     50 H16        -2.9577   -2.8413   -8.6673 H         1 MOL         0.0000
     51 H17         2.9531   -0.2456   -8.8377 H         1 MOL         0.0000
     52 H18         1.8606   -1.2702   -7.8554 H         1 MOL         0.0000
     53 H19         3.6260   -1.5092   -7.7749 H         1 MOL         0.0000
     54 H20         2.2142   -2.9520   -1.5903 H         1 MOL         0.0000
     55 H21         3.2758   -1.6822   -0.9799 H         1 MOL         0.0000
     56 H22        -2.4629    0.4673   -2.7815 H         1 MOL         0.0000
     57 H23        -2.5791   -0.9057   -1.6716 H         1 MOL         0.0000
     58 H24        -0.0826   -0.2516   -3.0240 H         1 MOL         0.0000
@<TRIPOS>BOND
     1    1    2 ar
     2    1    3 ar
     3    2    4 ar
     4    3   11 ar
     5    4   13 ar
     6    5    8 ar
     7    5   15 ar
     8    6    9 ar
     9    6   14 ar
    10    7   10 ar
    11    7   14 ar
    12    8   16 ar
    13    9   18 ar
    14   10   18 ar
    15   11   13 ar
    16   11   19 1
    17   12   15 ar
    18   12   17 ar
    19   12   20 1
    20   13   21 1
    21   14   25 1
    22   15   26 1
    23   16   17 ar
    24   16   32 1
    25   17   33 1
    26   18   34 1
    27   19   27 am
    28   19   30 2
    29   20   29 1
    30   20   31 2
    31   21   28 1
    32   22   27 1
    33   22   28 1
    34   23   32 1
    35   23   33 1
    36   24   34 1
    37   25   27 1
    38   26   28 1
    39    1   35 1
    40    2   36 1
    41    3   37 1
    42    4   38 1
    43    5   39 1
    44    6   40 1
    45    7   41 1
    46    8   42 1
    47    9   43 1
    48   10   44 1
    49   21   45 1
    50   21   46 1
    51   22   47 1
    52   22   48 1
    53   23   49 1
    54   23   50 1
    55   24   51 1
    56   24   52 1
    57   24   53 1
    58   25   54 1
    59   25   55 1
    60   26   56 1
    61   26   57 1
    62   28   58 1
