AVX101178_0
  -OEChem-04011314513D

 43 46  0     0  0  0  0  0  0999 V2000
    0.6112    4.1777    2.1795 C   0  0  0  0  0  0  0  0  0  0  0  0
    0.5889   -1.1456    1.7256 C   0  0  0  0  0  0  0  0  0  0  0  0
    0.2559    2.9957    1.5191 C   0  0  0  0  0  0  0  0  0  0  0  0
    0.8187   -2.4197    2.2454 C   0  0  0  0  0  0  0  0  0  0  0  0
    2.8543    4.1208    1.2230 C   0  0  0  0  0  0  0  0  0  0  0  0
    2.4768    2.9584    0.5853 C   0  0  0  0  0  0  0  0  0  0  0  0
    1.8973    4.7343    2.0327 C   0  0  0  0  0  0  0  0  0  0  0  0
    0.0024   -2.1152   -0.4103 C   0  0  0  0  0  0  0  0  0  0  0  0
    0.1764   -0.9939    0.4014 C   0  0  0  0  0  0  0  0  0  0  0  0
    1.2097    2.3942    0.7190 C   0  0  0  0  0  0  0  0  0  0  0  0
    0.6323   -3.5423    1.4384 C   0  0  0  0  0  0  0  0  0  0  0  0
    0.2452   -3.3889    0.1047 C   0  0  0  0  0  0  0  0  0  0  0  0
    3.2316    2.0914   -0.3156 C   0  0  0  0  0  0  0  0  0  0  0  0
    2.2968    0.9541   -0.7094 C   0  0  0  0  0  0  0  0  0  0  0  0
    2.2304    5.9654    2.7338 C   0  0  0  0  0  0  0  0  0  0  0  0
    3.4833    6.3977    2.9980 C   0  0  0  0  0  0  0  0  0  0  0  0
   -0.4256   -1.9497   -1.8145 C   0  0  0  0  0  0  0  0  0  0  0  0
    3.7538    7.7063    3.7557 C   0  0  0  0  0  0  0  0  0  0  0  0
    0.3096   -5.8306    1.2244 C   0  0  0  0  0  0  0  0  0  0  0  0
    0.6750   -5.6439   -0.2353 C   0  0  0  0  0  0  0  0  0  0  0  0
   -0.0697    0.3909   -0.1241 C   0  0  0  0  0  0  0  0  0  0  0  0
    1.1108    1.2161   -0.0446 N   0  0  0  0  0  0  0  0  0  0  0  0
   -1.6838   -1.9464   -2.0769 O   0  5  0  0  0  0  0  0  0  0  0  0
    2.7049    8.3268    4.1010 O   0  5  0  0  0  0  0  0  0  0  0  0
    4.3689    2.2046   -0.7038 O   0  0  0  0  0  0  0  0  0  0  0  0
    2.6347    0.0623   -1.4576 O   0  0  0  0  0  0  0  0  0  0  0  0
    0.4766   -1.8157   -2.7201 O   0  0  0  0  0  0  0  0  0  0  0  0
    4.9615    8.0176    3.9523 O   0  0  0  0  0  0  0  0  0  0  0  0
    0.8540   -4.7674    2.0112 O   0  0  0  0  0  0  0  0  0  0  0  0
    0.0774   -4.4495   -0.7468 O   0  0  0  0  0  0  0  0  0  0  0  0
   -0.1280    4.6650    2.8127 H   0  0  0  0  0  0  0  0  0  0  0  0
    0.7299   -0.2764    2.3629 H   0  0  0  0  0  0  0  0  0  0  0  0
   -0.7380    2.5801    1.6411 H   0  0  0  0  0  0  0  0  0  0  0  0
    1.1315   -2.5292    3.2802 H   0  0  0  0  0  0  0  0  0  0  0  0
    3.8494    4.5335    1.0969 H   0  0  0  0  0  0  0  0  0  0  0  0
    1.3806    6.5611    3.0829 H   0  0  0  0  0  0  0  0  0  0  0  0
    4.3363    5.7992    2.6809 H   0  0  0  0  0  0  0  0  0  0  0  0
   -0.7776   -5.8531    1.3696 H   0  0  0  0  0  0  0  0  0  0  0  0
    0.7245   -6.7701    1.6024 H   0  0  0  0  0  0  0  0  0  0  0  0
    1.7613   -5.5788   -0.3742 H   0  0  0  0  0  0  0  0  0  0  0  0
    0.3038   -6.4837   -0.8308 H   0  0  0  0  0  0  0  0  0  0  0  0
   -0.3865    0.3555   -1.1722 H   0  0  0  0  0  0  0  0  0  0  0  0
   -0.8652    0.8895    0.4395 H   0  0  0  0  0  0  0  0  0  0  0  0
  1  3  1  0  0  0  0
  1  7  2  0  0  0  0
  2  4  1  0  0  0  0
  2  9  2  0  0  0  0
  3 10  2  0  0  0  0
  4 11  2  0  0  0  0
  5  6  2  0  0  0  0
  5  7  1  0  0  0  0
  6 10  1  0  0  0  0
  6 13  1  0  0  0  0
  7 15  1  0  0  0  0
  8  9  1  0  0  0  0
  8 12  2  0  0  0  0
  8 17  1  0  0  0  0
  9 21  1  0  0  0  0
 10 22  1  0  0  0  0
 11 12  1  0  0  0  0
 11 29  1  0  0  0  0
 12 30  1  0  0  0  0
 13 14  1  0  0  0  0
 13 25  2  0  0  0  0
 14 22  1  0  0  0  0
 14 26  2  0  0  0  0
 15 16  2  0  0  0  0
 16 18  1  0  0  0  0
 17 23  1  0  0  0  0
 17 27  2  0  0  0  0
 18 24  1  0  0  0  0
 18 28  2  0  0  0  0
 19 20  1  0  0  0  0
 19 29  1  0  0  0  0
 20 30  1  0  0  0  0
 21 22  1  0  0  0  0
  1 31  1  0  0  0  0
  2 32  1  0  0  0  0
  3 33  1  0  0  0  0
  4 34  1  0  0  0  0
  5 35  1  0  0  0  0
 15 36  1  0  0  0  0
 16 37  1  0  0  0  0
 19 38  1  0  0  0  0
 19 39  1  0  0  0  0
 20 40  1  0  0  0  0
 20 41  1  0  0  0  0
 21 42  1  0  0  0  0
 21 43  1  0  0  0  0
M  CHG  2  23  -1  24  -1
M  END
$$$$
