AVX17684m_0
  -OEChem-04011314553D

 53 56  0     0  0  0  0  0  0999 V2000
    2.8868   -7.0048   -7.1911 C   0  0  0  0  0  0  0  0  0  0  0  0
   -0.0052    0.8633   -5.0902 C   0  0  0  0  0  0  0  0  0  0  0  0
    3.1092   -6.7921   -5.8307 C   0  0  0  0  0  0  0  0  0  0  0  0
    3.0531   -5.9574   -8.0972 C   0  0  0  0  0  0  0  0  0  0  0  0
   -0.6237    0.8519   -3.8401 C   0  0  0  0  0  0  0  0  0  0  0  0
    1.1773    0.1509   -5.2899 C   0  0  0  0  0  0  0  0  0  0  0  0
    3.4979   -5.5319   -5.3763 C   0  0  0  0  0  0  0  0  0  0  0  0
    3.4418   -4.6972   -7.6428 C   0  0  0  0  0  0  0  0  0  0  0  0
   -0.0596    0.1283   -2.7895 C   0  0  0  0  0  0  0  0  0  0  0  0
    3.0559   -5.8516   -1.4483 C   0  0  0  0  0  0  0  0  0  0  0  0
    2.9429   -7.2333   -1.6199 C   0  0  0  0  0  0  0  0  0  0  0  0
    1.7414   -0.5727   -4.2393 C   0  0  0  0  0  0  0  0  0  0  0  0
    0.7188   -5.6998   -0.7830 C   0  0  0  0  0  0  0  0  0  0  0  0
    3.6642   -4.4844   -6.2823 C   0  0  0  0  0  0  0  0  0  0  0  0
    1.1230   -0.5841   -2.9891 C   0  0  0  0  0  0  0  0  0  0  0  0
    1.9503   -5.0892   -1.0321 C   0  0  0  0  0  0  0  0  0  0  0  0
    1.7159   -7.8116   -1.3673 C   0  0  0  0  0  0  0  0  0  0  0  0
    0.6337   -7.0655   -0.9599 C   0  0  0  0  0  0  0  0  0  0  0  0
    2.9771   -1.3071   -4.4750 C   0  0  0  0  0  0  0  0  0  0  0  0
   -0.4532   -4.9245   -0.3456 C   0  0  0  0  0  0  0  0  0  0  0  0
    0.0280   -9.1382   -1.0970 C   0  0  0  0  0  0  0  0  0  0  0  0
    4.0823   -3.1277   -5.7938 C   0  0  0  0  0  0  0  0  0  0  0  0
    1.7082   -1.3533   -1.8416 C   0  0  0  0  0  0  0  0  0  0  0  0
    2.1210   -3.6138   -0.8625 C   0  0  0  0  0  0  0  0  0  0  0  0
    2.9460   -2.2990   -5.4606 N   0  0  0  0  0  0  0  0  0  0  0  0
    1.5021   -2.8210   -1.9587 N   0  3  0  0  0  0  0  0  0  0  0  0
   -0.6502   -4.7573    0.9161 O   0  5  0  0  0  0  0  0  0  0  0  0
    3.9934   -1.0600   -3.8039 O   0  0  0  0  0  0  0  0  0  0  0  0
   -1.2438   -4.4388   -1.2389 O   0  0  0  0  0  0  0  0  0  0  0  0
    1.4188   -9.1349   -1.4789 O   0  0  0  0  0  0  0  0  0  0  0  0
   -0.4765   -7.8282   -0.7658 O   0  0  0  0  0  0  0  0  0  0  0  0
    2.5854   -7.9864   -7.5450 H   0  0  0  0  0  0  0  0  0  0  0  0
   -0.4443    1.4265   -5.9088 H   0  0  0  0  0  0  0  0  0  0  0  0
    2.9808   -7.6078   -5.1252 H   0  0  0  0  0  0  0  0  0  0  0  0
    2.8811   -6.1229   -9.1566 H   0  0  0  0  0  0  0  0  0  0  0  0
   -1.5443    1.4070   -3.6851 H   0  0  0  0  0  0  0  0  0  0  0  0
    1.6501    0.1686   -6.2686 H   0  0  0  0  0  0  0  0  0  0  0  0
    3.6688   -5.3753   -4.3144 H   0  0  0  0  0  0  0  0  0  0  0  0
    3.5688   -3.8870   -8.3560 H   0  0  0  0  0  0  0  0  0  0  0  0
   -0.5497    0.1257   -1.8195 H   0  0  0  0  0  0  0  0  0  0  0  0
    4.0113   -5.3686   -1.6397 H   0  0  0  0  0  0  0  0  0  0  0  0
    3.7929   -7.8248   -1.9405 H   0  0  0  0  0  0  0  0  0  0  0  0
   -0.5628   -9.5420   -1.9272 H   0  0  0  0  0  0  0  0  0  0  0  0
   -0.0953   -9.7922   -0.2261 H   0  0  0  0  0  0  0  0  0  0  0  0
    4.7093   -3.2155   -4.8999 H   0  0  0  0  0  0  0  0  0  0  0  0
    4.6699   -2.6006   -6.5528 H   0  0  0  0  0  0  0  0  0  0  0  0
    2.7890   -1.1924   -1.7672 H   0  0  0  0  0  0  0  0  0  0  0  0
    1.2591   -1.0475   -0.8905 H   0  0  0  0  0  0  0  0  0  0  0  0
    1.6646   -3.2617    0.0711 H   0  0  0  0  0  0  0  0  0  0  0  0
    3.1815   -3.3332   -0.8369 H   0  0  0  0  0  0  0  0  0  0  0  0
    2.0720   -2.5020   -5.9345 H   0  0  0  0  0  0  0  0  0  0  0  0
    0.4927   -3.0189   -1.9883 H   0  0  0  0  0  0  0  0  0  0  0  0
    1.8777   -3.1436   -2.8608 H   0  0  0  0  0  0  0  0  0  0  0  0
  1  3  1  0  0  0  0
  1  4  2  0  0  0  0
  2  5  1  0  0  0  0
  2  6  2  0  0  0  0
  3  7  2  0  0  0  0
  4  8  1  0  0  0  0
  5  9  2  0  0  0  0
  6 12  1  0  0  0  0
  7 14  1  0  0  0  0
  8 14  2  0  0  0  0
  9 15  1  0  0  0  0
 10 11  2  0  0  0  0
 10 16  1  0  0  0  0
 11 17  1  0  0  0  0
 12 15  2  0  0  0  0
 12 19  1  0  0  0  0
 13 16  2  0  0  0  0
 13 18  1  0  0  0  0
 13 20  1  0  0  0  0
 14 22  1  0  0  0  0
 15 23  1  0  0  0  0
 16 24  1  0  0  0  0
 17 18  2  0  0  0  0
 17 30  1  0  0  0  0
 18 31  1  0  0  0  0
 19 25  1  0  0  0  0
 19 28  2  0  0  0  0
 20 27  1  0  0  0  0
 20 29  2  0  0  0  0
 21 30  1  0  0  0  0
 21 31  1  0  0  0  0
 22 25  1  0  0  0  0
 23 26  1  0  0  0  0
 24 26  1  0  0  0  0
  1 32  1  0  0  0  0
  2 33  1  0  0  0  0
  3 34  1  0  0  0  0
  4 35  1  0  0  0  0
  5 36  1  0  0  0  0
  6 37  1  0  0  0  0
  7 38  1  0  0  0  0
  8 39  1  0  0  0  0
  9 40  1  0  0  0  0
 10 41  1  0  0  0  0
 11 42  1  0  0  0  0
 21 43  1  0  0  0  0
 21 44  1  0  0  0  0
 22 45  1  0  0  0  0
 22 46  1  0  0  0  0
 23 47  1  0  0  0  0
 23 48  1  0  0  0  0
 24 49  1  0  0  0  0
 24 50  1  0  0  0  0
 25 51  1  0  0  0  0
 26 52  1  0  0  0  0
 26 53  1  0  0  0  0
M  CHG  2  26   1  27  -1
M  END
$$$$
