@<TRIPOS>MOLECULE
AVX101120_0
   71    74     0     0     0
SMALL
NO_CHARGES

@<TRIPOS>ATOM
      1 C1          9.3084   -1.3718   -0.2623 C.ar      1 MOL         0.0000
      2 C2          8.5379   -0.2725    0.1164 C.ar      1 MOL         0.0000
      3 C3          8.7696   -2.3441   -1.1050 C.ar      1 MOL         0.0000
      4 C4          0.0109   -0.0841    2.4153 C.ar      1 MOL         0.0000
      5 C5          7.2286   -0.1454   -0.3476 C.ar      1 MOL         0.0000
      6 C6          7.4603   -2.2170   -1.5690 C.ar      1 MOL         0.0000
      7 C7          4.5775   -2.1248   -1.9515 C.ar      1 MOL         0.0000
      8 C8          0.4385   -0.4832    1.1490 C.ar      1 MOL         0.0000
      9 C9          3.2682   -1.9979   -2.4154 C.ar      1 MOL         0.0000
     10 C10        -0.0650    4.4296   -2.0337 C.ar      1 MOL         0.0000
     11 C11         0.3516    3.3987    0.1112 C.ar      1 MOL         0.0000
     12 C12        -1.3375   -0.1809    2.7588 C.ar      1 MOL         0.0000
     13 C13        -1.4334    4.4389   -1.7634 C.ar      1 MOL         0.0000
     14 C14        -1.0168    3.4081    0.3815 C.ar      1 MOL         0.0000
     15 C15         4.7767    0.2811   -1.8554 C.ar      1 MOL         0.0000
     16 C16         6.6898   -1.1176   -1.1903 C.ar      1 MOL         0.0000
     17 C17         5.3318   -0.9853   -1.6714 C.ar      1 MOL         0.0000
     18 C18         3.4674    0.4080   -2.3194 C.ar      1 MOL         0.0000
     19 C19        -1.8309   -1.0759    0.5696 C.ar      1 MOL         0.0000
     20 C20         0.8275    3.9094   -1.0964 C.ar      1 MOL         0.0000
     21 C21         2.7131   -0.7315   -2.5993 C.ar      1 MOL         0.0000
     22 C22        -0.4824   -0.9791    0.2262 C.ar      1 MOL         0.0000
     23 C23        -1.9093    3.9282   -0.5558 C.ar      1 MOL         0.0000
     24 C24        -2.2584   -0.6768    1.8359 C.ar      1 MOL         0.0000
     25 C25         2.9118    1.7421   -2.5028 C.2       1 MOL         0.0000
     26 C26        -2.8101   -1.5969   -0.4049 C.2       1 MOL         0.0000
     27 C27        -0.9131    0.3966   -2.5911 C.3       1 MOL         0.0000
     28 C28        -3.6627    3.4009    0.9619 C.3       1 MOL         0.0000
     29 C29        -3.9152   -0.3301    3.5064 C.3       1 MOL         0.0000
     30 C30         2.3005    3.8998   -1.3869 C.3       1 MOL         0.0000
     31 C31         1.3027   -0.6241   -3.0994 C.3       1 MOL         0.0000
     32 C32         0.0063   -1.3997   -1.1286 C.3       1 MOL         0.0000
     33 N1          2.8461    2.5615   -1.3713 N.am      1 MOL         0.0000
     34 N2          0.3254   -0.2381   -2.0259 N.4       1 MOL         0.0000
     35 O1         -3.3916   -0.7671   -1.1962 O.co2     1 MOL         0.0000
     36 O2          2.5025    2.1049   -3.6185 O.2       1 MOL         0.0000
     37 O3         -3.0448   -2.8608   -0.4254 O.co2     1 MOL         0.0000
     38 O4         -3.2445    3.9387   -0.2918 O.3       1 MOL         0.0000
     39 O5         -3.5715   -0.7610    2.1913 O.3       1 MOL         0.0000
     40 H1         10.3283   -1.4697    0.0977 H         1 MOL         0.0000
     41 H2          8.9578    0.4855    0.7711 H         1 MOL         0.0000
     42 H3          9.3694   -3.1996   -1.4014 H         1 MOL         0.0000
     43 H4          0.7282    0.3009    3.1341 H         1 MOL         0.0000
     44 H5          6.6408    0.7176   -0.0435 H         1 MOL         0.0000
     45 H6          7.0540   -2.9825   -2.2258 H         1 MOL         0.0000
     46 H7          4.9961   -3.1188   -1.8132 H         1 MOL         0.0000
     47 H8          1.4911   -0.4041    0.8905 H         1 MOL         0.0000
     48 H9          2.6888   -2.8918   -2.6306 H         1 MOL         0.0000
     49 H10         0.2969    4.8294   -2.9771 H         1 MOL         0.0000
     50 H11         1.0397    2.9912    0.8475 H         1 MOL         0.0000
     51 H12        -1.6633    0.1324    3.7472 H         1 MOL         0.0000
     52 H13        -2.1237    4.8458   -2.4976 H         1 MOL         0.0000
     53 H14        -1.3812    3.0092    1.3241 H         1 MOL         0.0000
     54 H15         5.3625    1.1722   -1.6379 H         1 MOL         0.0000
     55 H16        -1.4148   -0.3465   -3.2136 H         1 MOL         0.0000
     56 H17        -1.5453    0.6991   -1.7541 H         1 MOL         0.0000
     57 H18        -0.6053    1.2608   -3.1829 H         1 MOL         0.0000
     58 H19        -4.7500    3.4706    1.0446 H         1 MOL         0.0000
     59 H20        -3.1884    3.9572    1.7744 H         1 MOL         0.0000
     60 H21        -3.3618    2.3521    1.0169 H         1 MOL         0.0000
     61 H22        -4.9904   -0.4498    3.6605 H         1 MOL         0.0000
     62 H23        -3.6327    0.7181    3.6328 H         1 MOL         0.0000
     63 H24        -3.3750   -0.9412    4.2333 H         1 MOL         0.0000
     64 H25         2.5026    4.3350   -2.3716 H         1 MOL         0.0000
     65 H26         2.8503    4.4941   -0.6495 H         1 MOL         0.0000
     66 H27         1.2186    0.1316   -3.8877 H         1 MOL         0.0000
     67 H28         0.9558   -1.5774   -3.5126 H         1 MOL         0.0000
     68 H29         0.9205   -1.9980   -1.0515 H         1 MOL         0.0000
     69 H30        -0.7444   -2.0031   -1.6501 H         1 MOL         0.0000
     70 H31         3.1364    2.1919   -0.4719 H         1 MOL         0.0000
     71 H32         0.7857    0.4739   -1.4429 H         1 MOL         0.0000
@<TRIPOS>BOND
     1    1    2 ar
     2    1    3 ar
     3    2    5 ar
     4    3    6 ar
     5    4    8 ar
     6    4   12 ar
     7    5   16 ar
     8    6   16 ar
     9    7    9 ar
    10    7   17 ar
    11    8   22 ar
    12    9   21 ar
    13   10   13 ar
    14   10   20 ar
    15   11   14 ar
    16   11   20 ar
    17   12   24 ar
    18   13   23 ar
    19   14   23 ar
    20   15   17 ar
    21   15   18 ar
    22   16   17 1
    23   18   21 ar
    24   18   25 1
    25   19   22 ar
    26   19   24 ar
    27   19   26 1
    28   20   30 1
    29   21   31 1
    30   22   32 1
    31   23   38 1
    32   24   39 1
    33   25   33 am
    34   25   36 2
    35   26   35 1
    36   26   37 2
    37   27   34 1
    38   28   38 1
    39   29   39 1
    40   30   33 1
    41   31   34 1
    42   32   34 1
    43    1   40 1
    44    2   41 1
    45    3   42 1
    46    4   43 1
    47    5   44 1
    48    6   45 1
    49    7   46 1
    50    8   47 1
    51    9   48 1
    52   10   49 1
    53   11   50 1
    54   12   51 1
    55   13   52 1
    56   14   53 1
    57   15   54 1
    58   27   55 1
    59   27   56 1
    60   27   57 1
    61   28   58 1
    62   28   59 1
    63   28   60 1
    64   29   61 1
    65   29   62 1
    66   29   63 1
    67   30   64 1
    68   30   65 1
    69   31   66 1
    70   31   67 1
    71   32   68 1
    72   32   69 1
    73   33   70 1
    74   34   71 1
