AVX17734_3
  -OEChem-04011314553D

 67 70  0     1  0  0  0  0  0999 V2000
   -0.3343    5.0472   10.2818 C   0  0  0  0  0  0  0  0  0  0  0  0
    0.5203    5.6000    3.2582 C   0  0  0  0  0  0  0  0  0  0  0  0
    1.0556    4.9323   10.3047 C   0  0  0  0  0  0  0  0  0  0  0  0
   -1.1079    4.0410    9.7032 C   0  0  0  0  0  0  0  0  0  0  0  0
   -0.2860    4.4955    2.9834 C   0  0  0  0  0  0  0  0  0  0  0  0
    1.6762    5.4465    4.0237 C   0  0  0  0  0  0  0  0  0  0  0  0
    1.6720    3.8113    9.7488 C   0  0  0  0  0  0  0  0  0  0  0  0
   -0.4915    2.9200    9.1473 C   0  0  0  0  0  0  0  0  0  0  0  0
    0.0634    3.2375    3.4742 C   0  0  0  0  0  0  0  0  0  0  0  0
    2.0257    4.1885    4.5146 C   0  0  0  0  0  0  0  0  0  0  0  0
    2.6984   -0.1554   -0.8335 C   0  0  0  0  0  0  0  0  0  0  0  0
    2.4898    0.5064   -2.0437 C   0  0  0  0  0  0  0  0  0  0  0  0
    0.4110   -0.9383   -0.8600 C   0  0  0  0  0  0  0  0  0  0  0  0
    0.8985    2.8051    9.1701 C   0  0  0  0  0  0  0  0  0  0  0  0
    1.2193    3.0840    4.2398 C   0  0  0  0  0  0  0  0  0  0  0  0
    1.6588   -0.8721   -0.2397 C   0  0  0  0  0  0  0  0  0  0  0  0
    1.2382    0.4521   -2.6575 C   0  0  0  0  0  0  0  0  0  0  0  0
    0.2058   -0.2881   -2.0772 C   0  0  0  0  0  0  0  0  0  0  0  0
   -0.6844   -1.7059   -0.2329 C   0  0  0  0  0  0  0  0  0  0  0  0
    0.9949    1.4626    6.1474 C   0  0  0  0  0  0  0  0  0  0  0  0
    0.2955    3.7747   -7.1899 C   0  0  0  0  0  0  0  0  0  0  0  0
    1.9676    0.1572    2.8693 C   0  0  0  0  0  0  0  0  0  0  0  0
   -1.0304   -0.0109   -4.0227 C   0  0  0  0  0  0  0  0  0  0  0  0
   -0.2902    1.3099   -4.1877 C   0  0  2  0  0  0  0  0  0  0  0  0
    1.5613    1.5983    8.5714 C   0  0  0  0  0  0  0  0  0  0  0  0
    1.9131   -1.5618    1.0613 C   0  0  0  0  0  0  0  0  0  0  0  0
    0.3150    3.1551   -5.7876 C   0  0  0  0  0  0  0  0  0  0  0  0
   -0.3416    1.7973   -5.6283 C   0  0  0  0  0  0  0  0  0  0  0  0
    1.5984    1.7215    4.7721 C   0  0  1  0  0  0  0  0  0  0  0  0
    1.8712    1.7895    7.1728 N   0  0  0  0  0  0  0  0  0  0  0  0
    1.3209   -0.8638    2.1728 N   0  0  0  0  0  0  0  0  0  0  0  0
    1.1697    0.6573    3.8953 N   0  0  0  0  0  0  0  0  0  0  0  0
   -0.8128   -2.9493   -0.5320 O   0  5  0  0  0  0  0  0  0  0  0  0
    0.8451    4.9034   -7.3138 O   0  5  0  0  0  0  0  0  0  0  0  0
   -1.4672   -1.1009    0.5876 O   0  0  0  0  0  0  0  0  0  0  0  0
   -0.1257    0.9815    6.3037 O   0  0  0  0  0  0  0  0  0  0  0  0
   -0.2683    3.0571   -8.0657 O   0  0  0  0  0  0  0  0  0  0  0  0
    3.0991    0.5648    2.6098 O   0  0  0  0  0  0  0  0  0  0  0  0
   -1.0342   -0.4070   -2.6475 O   0  0  0  0  0  0  0  0  0  0  0  0
    1.0891    1.1390   -3.8334 O   0  0  0  0  0  0  0  0  0  0  0  0
   -0.8141    5.9195   10.7159 H   0  0  0  0  0  0  0  0  0  0  0  0
    0.2488    6.5792    2.8747 H   0  0  0  0  0  0  0  0  0  0  0  0
    1.6581    5.7152   10.7562 H   0  0  0  0  0  0  0  0  0  0  0  0
   -2.1901    4.1296    9.6862 H   0  0  0  0  0  0  0  0  0  0  0  0
   -1.1855    4.6146    2.3864 H   0  0  0  0  0  0  0  0  0  0  0  0
    2.3048    6.3060    4.2369 H   0  0  0  0  0  0  0  0  0  0  0  0
    2.7556    3.7304    9.7710 H   0  0  0  0  0  0  0  0  0  0  0  0
   -1.1022    2.1410    8.6985 H   0  0  0  0  0  0  0  0  0  0  0  0
   -0.5709    2.3826    3.2553 H   0  0  0  0  0  0  0  0  0  0  0  0
    2.9280    4.0784    5.1103 H   0  0  0  0  0  0  0  0  0  0  0  0
    3.6743   -0.1024   -0.3581 H   0  0  0  0  0  0  0  0  0  0  0  0
    3.3018    1.0714   -2.4932 H   0  0  0  0  0  0  0  0  0  0  0  0
   -2.0746    0.0878   -4.3377 H   0  0  0  0  0  0  0  0  0  0  0  0
   -0.5716   -0.8142   -4.6135 H   0  0  0  0  0  0  0  0  0  0  0  0
   -0.7167    2.0789   -3.5292 H   0  0  0  0  0  0  0  0  0  0  0  0
    2.4958    1.3710    9.0959 H   0  0  0  0  0  0  0  0  0  0  0  0
    0.9188    0.7154    8.6543 H   0  0  0  0  0  0  0  0  0  0  0  0
    1.5038   -2.5806    1.0529 H   0  0  0  0  0  0  0  0  0  0  0  0
    2.9882   -1.6512    1.2633 H   0  0  0  0  0  0  0  0  0  0  0  0
   -0.2154    3.8603   -5.1353 H   0  0  0  0  0  0  0  0  0  0  0  0
    1.3545    3.1146   -5.4385 H   0  0  0  0  0  0  0  0  0  0  0  0
    0.1262    1.0439   -6.2596 H   0  0  0  0  0  0  0  0  0  0  0  0
   -1.3929    1.8615   -5.9078 H   0  0  0  0  0  0  0  0  0  0  0  0
    2.6888    1.6251    4.8386 H   0  0  0  0  0  0  0  0  0  0  0  0
    2.7798    2.1821    6.9450 H   0  0  0  0  0  0  0  0  0  0  0  0
    0.3830   -1.1289    2.4651 H   0  0  0  0  0  0  0  0  0  0  0  0
    0.2295    0.2908    4.0064 H   0  0  0  0  0  0  0  0  0  0  0  0
  1  3  2  0  0  0  0
  1  4  1  0  0  0  0
  2  5  2  0  0  0  0
  2  6  1  0  0  0  0
  3  7  1  0  0  0  0
  4  8  2  0  0  0  0
  5  9  1  0  0  0  0
  6 10  2  0  0  0  0
  7 14  2  0  0  0  0
  8 14  1  0  0  0  0
  9 15  2  0  0  0  0
 10 15  1  0  0  0  0
 11 12  2  0  0  0  0
 11 16  1  0  0  0  0
 12 17  1  0  0  0  0
 13 16  2  0  0  0  0
 13 18  1  0  0  0  0
 13 19  1  0  0  0  0
 14 25  1  0  0  0  0
 15 29  1  0  0  0  0
 16 26  1  0  0  0  0
 17 18  2  0  0  0  0
 17 40  1  0  0  0  0
 18 39  1  0  0  0  0
 19 33  1  0  0  0  0
 19 35  2  0  0  0  0
 20 29  1  0  0  0  0
 20 30  1  0  0  0  0
 20 36  2  0  0  0  0
 21 27  1  0  0  0  0
 21 34  1  0  0  0  0
 21 37  2  0  0  0  0
 22 31  1  0  0  0  0
 22 32  1  0  0  0  0
 22 38  2  0  0  0  0
 23 24  1  0  0  0  0
 23 39  1  0  0  0  0
 24 28  1  0  0  0  0
 24 40  1  0  0  0  0
 25 30  1  0  0  0  0
 26 31  1  0  0  0  0
 27 28  1  0  0  0  0
 29 32  1  0  0  0  0
  1 41  1  0  0  0  0
  2 42  1  0  0  0  0
  3 43  1  0  0  0  0
  4 44  1  0  0  0  0
  5 45  1  0  0  0  0
  6 46  1  0  0  0  0
  7 47  1  0  0  0  0
  8 48  1  0  0  0  0
  9 49  1  0  0  0  0
 10 50  1  0  0  0  0
 11 51  1  0  0  0  0
 12 52  1  0  0  0  0
 23 53  1  0  0  0  0
 23 54  1  0  0  0  0
 24 55  1  0  0  0  0
 25 56  1  0  0  0  0
 25 57  1  0  0  0  0
 26 58  1  0  0  0  0
 26 59  1  0  0  0  0
 27 60  1  0  0  0  0
 27 61  1  0  0  0  0
 28 62  1  0  0  0  0
 28 63  1  0  0  0  0
 29 64  1  0  0  0  0
 30 65  1  0  0  0  0
 31 66  1  0  0  0  0
 32 67  1  0  0  0  0
M  CHG  2  33  -1  34  -1
M  END
$$$$
