AVX17264_1
  -OEChem-04011314523D

 33 34  0     1  0  0  0  0  0999 V2000
    2.3907    1.4492    1.1589 C   0  0  0  0  0  0  0  0  0  0  0  0
    2.3014    0.2186    1.8056 C   0  0  0  0  0  0  0  0  0  0  0  0
    1.3686    1.8684    0.3043 C   0  0  0  0  0  0  0  0  0  0  0  0
    1.1898   -0.5955    1.6012 C   0  0  0  0  0  0  0  0  0  0  0  0
    0.2423    1.0621    0.0837 C   0  0  0  0  0  0  0  0  0  0  0  0
    0.1687   -0.1723    0.7440 C   0  0  0  0  0  0  0  0  0  0  0  0
   -0.8476    1.5246   -0.8480 C   0  0  0  0  0  0  0  0  0  0  0  0
   -1.7823   -0.5440   -1.7582 C   0  0  0  0  0  0  0  0  0  0  0  0
   -1.1037   -1.5757   -0.8451 C   0  0  2  0  0  0  0  0  0  0  0  0
   -1.9219   -5.3125   -0.2560 C   0  0  0  0  0  0  0  0  0  0  0  0
   -1.9373   -2.8550   -0.7781 C   0  0  0  0  0  0  0  0  0  0  0  0
   -1.0874   -4.0450   -0.3476 C   0  0  0  0  0  0  0  0  0  0  0  0
   -0.9943    0.6637   -2.0239 N   0  0  0  0  0  0  0  0  0  0  0  0
   -0.9963   -1.0440    0.5557 N   0  3  0  0  0  0  0  0  0  0  0  0
    3.2575    2.0841    1.3185 H   0  0  0  0  0  0  0  0  0  0  0  0
    3.0973   -0.1052    2.4698 H   0  0  0  0  0  0  0  0  0  0  0  0
    1.4620    2.8319   -0.1909 H   0  0  0  0  0  0  0  0  0  0  0  0
    1.1296   -1.5526    2.1122 H   0  0  0  0  0  0  0  0  0  0  0  0
   -1.7928    1.6396   -0.3028 H   0  0  0  0  0  0  0  0  0  0  0  0
   -0.5984    2.5296   -1.2116 H   0  0  0  0  0  0  0  0  0  0  0  0
   -1.9598   -1.0205   -2.7304 H   0  0  0  0  0  0  0  0  0  0  0  0
   -2.7731   -0.2703   -1.3722 H   0  0  0  0  0  0  0  0  0  0  0  0
   -0.0944   -1.8281   -1.1952 H   0  0  0  0  0  0  0  0  0  0  0  0
   -2.7471   -5.1885    0.4526 H   0  0  0  0  0  0  0  0  0  0  0  0
   -1.3041   -6.1494    0.0847 H   0  0  0  0  0  0  0  0  0  0  0  0
   -2.3431   -5.5764   -1.2314 H   0  0  0  0  0  0  0  0  0  0  0  0
   -2.7593   -2.7026   -0.0731 H   0  0  0  0  0  0  0  0  0  0  0  0
   -2.3766   -3.0404   -1.7624 H   0  0  0  0  0  0  0  0  0  0  0  0
   -0.2719   -4.2024   -1.0635 H   0  0  0  0  0  0  0  0  0  0  0  0
   -0.6285   -3.8451    0.6277 H   0  0  0  0  0  0  0  0  0  0  0  0
   -1.4757    1.1959   -2.7499 H   0  0  0  0  0  0  0  0  0  0  0  0
   -0.9203   -1.8219    1.2264 H   0  0  0  0  0  0  0  0  0  0  0  0
   -1.8425   -0.5233    0.8263 H   0  0  0  0  0  0  0  0  0  0  0  0
  1  2  2  0  0  0  0
  1  3  1  0  0  0  0
  2  4  1  0  0  0  0
  3  5  2  0  0  0  0
  4  6  2  0  0  0  0
  5  6  1  0  0  0  0
  5  7  1  0  0  0  0
  6 14  1  0  0  0  0
  7 13  1  0  0  0  0
  8  9  1  0  0  0  0
  8 13  1  0  0  0  0
  9 11  1  0  0  0  0
  9 14  1  0  0  0  0
 10 12  1  0  0  0  0
 11 12  1  0  0  0  0
  1 15  1  0  0  0  0
  2 16  1  0  0  0  0
  3 17  1  0  0  0  0
  4 18  1  0  0  0  0
  7 19  1  0  0  0  0
  7 20  1  0  0  0  0
  8 21  1  0  0  0  0
  8 22  1  0  0  0  0
  9 23  1  0  0  0  0
 10 24  1  0  0  0  0
 10 25  1  0  0  0  0
 10 26  1  0  0  0  0
 11 27  1  0  0  0  0
 11 28  1  0  0  0  0
 12 29  1  0  0  0  0
 12 30  1  0  0  0  0
 13 31  1  0  0  0  0
 14 32  1  0  0  0  0
 14 33  1  0  0  0  0
M  CHG  1  14   1
M  END
$$$$
