@<TRIPOS>MOLECULE
AVX17233_0
   26    27     0     0     0
SMALL
NO_CHARGES

@<TRIPOS>ATOM
      1 C1          1.8851   -1.0363   -0.1124 C.ar      1 MOL         0.0000
      2 C2          2.8783   -1.6520    2.0022 C.ar      1 MOL         0.0000
      3 C3          0.8066   -0.4630    0.5610 C.ar      1 MOL         0.0000
      4 C4          1.7997   -1.0786    2.6757 C.ar      1 MOL         0.0000
      5 C5          5.9011   -2.1037   -1.5656 C.ar      1 MOL         0.0000
      6 C6          4.8435   -1.4669   -0.9258 C.ar      1 MOL         0.0000
      7 C7          5.2586   -4.1298   -0.4986 C.ar      1 MOL         0.0000
      8 C8          2.9210   -1.6309    0.6081 C.ar      1 MOL         0.0000
      9 C9          0.7638   -0.4841    1.9551 C.ar      1 MOL         0.0000
     10 C10         6.1195   -3.4603   -1.3533 C.ar      1 MOL         0.0000
     11 C11         4.0396   -2.2257   -0.0904 C.ar      1 MOL         0.0000
     12 C12        -0.3895    0.1286    2.6751 C.3       1 MOL         0.0000
     13 N1          4.2206   -3.5453    0.1406 N.ar      1 MOL         0.0000
     14 N2          7.1891   -4.1369   -1.9912 N.pl3     1 MOL         0.0000
     15 O1          7.9472   -3.4938   -2.7588 O.3       1 MOL         0.0000
     16 O2          7.3528   -5.3630   -1.7731 O.2       1 MOL         0.0000
     17 H1          1.9036   -1.0124   -1.1995 H         1 MOL         0.0000
     18 H2          3.6784   -2.1111    2.5780 H         1 MOL         0.0000
     19 H3          0.0034   -0.0030   -0.0085 H         1 MOL         0.0000
     20 H4          1.7748   -1.0991    3.7621 H         1 MOL         0.0000
     21 H5          6.5475   -1.5320   -2.2266 H         1 MOL         0.0000
     22 H6          4.6661   -0.4083   -1.0860 H         1 MOL         0.0000
     23 H7          5.3765   -5.1895   -0.2920 H         1 MOL         0.0000
     24 H8         -1.1811   -0.6145    2.8307 H         1 MOL         0.0000
     25 H9         -0.0848    0.5223    3.6535 H         1 MOL         0.0000
     26 H10        -0.8094    0.9714    2.1106 H         1 MOL         0.0000
@<TRIPOS>BOND
     1    1    3 ar
     2    1    8 ar
     3    2    4 ar
     4    2    8 ar
     5    3    9 ar
     6    4    9 ar
     7    5    6 ar
     8    5   10 ar
     9    6   11 ar
    10    7   10 ar
    11    7   13 ar
    12    8   11 1
    13    9   12 1
    14   10   14 1
    15   11   13 ar
    16   14   15 1
    17   14   16 2
    18    1   17 1
    19    2   18 1
    20    3   19 1
    21    4   20 1
    22    5   21 1
    23    6   22 1
    24    7   23 1
    25   12   24 1
    26   12   25 1
    27   12   26 1
