AVX17369_2
  -OEChem-04011314523D

 35 37  0     1  0  0  0  0  0999 V2000
    2.3687    1.2139   -0.5172 C   0  0  0  0  0  0  0  0  0  0  0  0
    2.3964   -0.0723   -1.0778 C   0  0  0  0  0  0  0  0  0  0  0  0
   -2.8473   -5.4159    0.5092 C   0  0  0  0  0  0  0  0  0  0  0  0
   -3.9843   -5.1958    1.2866 C   0  0  0  0  0  0  0  0  0  0  0  0
    1.2530    1.6549    0.1973 C   0  0  0  0  0  0  0  0  0  0  0  0
    1.3094   -0.9362   -0.9302 C   0  0  0  0  0  0  0  0  0  0  0  0
   -1.8286   -4.4636    0.4782 C   0  0  0  0  0  0  0  0  0  0  0  0
   -3.0839   -3.0710    2.0018 C   0  0  0  0  0  0  0  0  0  0  0  0
   -4.1026   -4.0233    2.0329 C   0  0  0  0  0  0  0  0  0  0  0  0
    0.1745    0.7958    0.3290 C   0  0  0  0  0  0  0  0  0  0  0  0
    0.2036   -0.4899   -0.2235 C   0  0  0  0  0  0  0  0  0  0  0  0
   -1.9469   -3.2912    1.2245 C   0  0  0  0  0  0  0  0  0  0  0  0
   -5.3022   -3.7904    2.8531 C   0  0  0  0  0  0  0  0  0  0  0  0
   -1.1042    1.0375    1.0713 C   0  0  0  0  0  0  0  0  0  0  0  0
   -1.0641   -1.2425    0.0794 C   0  0  2  0  0  0  0  0  0  0  0  0
   -1.9958   -0.0886    0.5171 C   0  0  2  0  0  0  0  0  0  0  0  0
   -0.8479   -2.2635    1.1909 C   0  0  0  0  0  0  0  0  0  0  0  0
   -5.3862   -2.6997    3.5329 O   0  5  0  0  0  0  0  0  0  0  0  0
   -6.2287   -4.6850    2.8645 O   0  0  0  0  0  0  0  0  0  0  0  0
   -2.6936    0.3909   -0.6363 O   0  0  0  0  0  0  0  0  0  0  0  0
    3.2263    1.8704   -0.6377 H   0  0  0  0  0  0  0  0  0  0  0  0
    3.2749   -0.3995   -1.6274 H   0  0  0  0  0  0  0  0  0  0  0  0
   -2.7554   -6.3290   -0.0716 H   0  0  0  0  0  0  0  0  0  0  0  0
   -4.7722   -5.9445    1.3040 H   0  0  0  0  0  0  0  0  0  0  0  0
    1.2373    2.6463    0.6368 H   0  0  0  0  0  0  0  0  0  0  0  0
    1.3364   -1.9325   -1.3584 H   0  0  0  0  0  0  0  0  0  0  0  0
   -0.9463   -4.6436   -0.1302 H   0  0  0  0  0  0  0  0  0  0  0  0
   -3.1747   -2.1564    2.5833 H   0  0  0  0  0  0  0  0  0  0  0  0
   -0.9283    0.9100    2.1441 H   0  0  0  0  0  0  0  0  0  0  0  0
   -1.5092    2.0318    0.8615 H   0  0  0  0  0  0  0  0  0  0  0  0
   -1.4383   -1.7325   -0.8271 H   0  0  0  0  0  0  0  0  0  0  0  0
   -2.7549   -0.4015    1.2413 H   0  0  0  0  0  0  0  0  0  0  0  0
   -0.7909   -1.7485    2.1562 H   0  0  0  0  0  0  0  0  0  0  0  0
    0.1196   -2.7585    1.0514 H   0  0  0  0  0  0  0  0  0  0  0  0
   -3.2384   -0.3459   -0.9491 H   0  0  0  0  0  0  0  0  0  0  0  0
  1  2  2  0  0  0  0
  1  5  1  0  0  0  0
  2  6  1  0  0  0  0
  3  4  1  0  0  0  0
  3  7  2  0  0  0  0
  4  9  2  0  0  0  0
  5 10  2  0  0  0  0
  6 11  2  0  0  0  0
  7 12  1  0  0  0  0
  8  9  1  0  0  0  0
  8 12  2  0  0  0  0
  9 13  1  0  0  0  0
 10 11  1  0  0  0  0
 10 14  1  0  0  0  0
 11 15  1  0  0  0  0
 12 17  1  0  0  0  0
 13 18  1  0  0  0  0
 13 19  2  0  0  0  0
 14 16  1  0  0  0  0
 15 16  1  0  0  0  0
 15 17  1  0  0  0  0
 16 20  1  0  0  0  0
  1 21  1  0  0  0  0
  2 22  1  0  0  0  0
  3 23  1  0  0  0  0
  4 24  1  0  0  0  0
  5 25  1  0  0  0  0
  6 26  1  0  0  0  0
  7 27  1  0  0  0  0
  8 28  1  0  0  0  0
 14 29  1  0  0  0  0
 14 30  1  0  0  0  0
 15 31  1  0  0  0  0
 16 32  1  0  0  0  0
 17 33  1  0  0  0  0
 17 34  1  0  0  0  0
 20 35  1  0  0  0  0
M  CHG  1  18  -1
M  END
$$$$
