@<TRIPOS>MOLECULE
AVX17552_0
   47    51     0     0     0
SMALL
NO_CHARGES

@<TRIPOS>ATOM
      1 C1          5.3138   -0.3962    5.6897 C.ar      1 MOL         0.0000
      2 C2          3.0881    6.1994    3.8278 C.ar      1 MOL         0.0000
      3 C3          4.3583    0.5850    5.9540 C.ar      1 MOL         0.0000
      4 C4          5.8283   -0.5395    4.4011 C.ar      1 MOL         0.0000
      5 C5          4.3920    5.8443    3.4826 C.ar      1 MOL         0.0000
      6 C6          2.0647    5.2546    3.7522 C.ar      1 MOL         0.0000
      7 C7         -1.0401    0.2034   -2.5613 C.ar      1 MOL         0.0000
      8 C8          3.9172    1.4228    4.9297 C.ar      1 MOL         0.0000
      9 C9          5.3871    0.2983    3.3768 C.ar      1 MOL         0.0000
     10 C10         4.6726    4.5444    3.0617 C.ar      1 MOL         0.0000
     11 C11         2.3452    3.9547    3.3313 C.ar      1 MOL         0.0000
     12 C12        -2.1854   -0.5877   -2.4020 C.ar      1 MOL         0.0000
     13 C13        -0.5580   -0.0734   -0.2034 C.ar      1 MOL         0.0000
     14 C14        -0.2355    0.4519   -1.4523 C.ar      1 MOL         0.0000
     15 C15         4.4316    1.2794    3.6411 C.ar      1 MOL         0.0000
     16 C16         3.6492    3.5995    2.9860 C.ar      1 MOL         0.0000
     17 C17        -2.4730   -1.0936   -1.1394 C.ar      1 MOL         0.0000
     18 C18        -1.6751   -0.8455   -0.0459 C.ar      1 MOL         0.0000
     19 C19         0.4577    0.3496    0.7605 C.2       1 MOL         0.0000
     20 C20         2.5628    1.7909    0.5100 C.2       1 MOL         0.0000
     21 C21         1.0163    1.2500   -1.3654 C.3       1 MOL         0.0000
     22 C22        -3.3215   -2.0869    0.5876 C.3       1 MOL         0.0000
     23 C23         3.9531    2.1882    2.5289 C.3       1 MOL         0.0000
     24 N1          1.3934    1.1425    0.0477 N.am      1 MOL         0.0000
     25 N2          2.8090    1.6080    1.8659 N.am      1 MOL         0.0000
     26 O1          0.4338    0.0367    1.9374 O.2       1 MOL         0.0000
     27 O2          3.2950    2.4566   -0.2263 O.2       1 MOL         0.0000
     28 O3         -3.5436   -1.8748   -0.8226 O.3       1 MOL         0.0000
     29 O4         -2.1364   -1.4315    1.0847 O.3       1 MOL         0.0000
     30 H1          5.6582   -1.0475    6.4876 H         1 MOL         0.0000
     31 H2          2.8700    7.2112    4.1568 H         1 MOL         0.0000
     32 H3          3.9584    0.6975    6.9576 H         1 MOL         0.0000
     33 H4          6.5730   -1.3026    4.1952 H         1 MOL         0.0000
     34 H5          5.1892    6.5795    3.5424 H         1 MOL         0.0000
     35 H6          1.0496    5.5304    4.0220 H         1 MOL         0.0000
     36 H7         -0.7881    0.6129   -3.5342 H         1 MOL         0.0000
     37 H8          3.1722    2.1844    5.1449 H         1 MOL         0.0000
     38 H9          5.7934    0.1792    2.3759 H         1 MOL         0.0000
     39 H10         5.6915    4.2767    2.7945 H         1 MOL         0.0000
     40 H11         1.5415    3.2252    3.2754 H         1 MOL         0.0000
     41 H12        -2.8308   -0.7973   -3.2484 H         1 MOL         0.0000
     42 H13         1.8199    0.8341   -1.9811 H         1 MOL         0.0000
     43 H14         0.8568    2.3043   -1.6123 H         1 MOL         0.0000
     44 H15        -4.1895   -1.7089    1.1399 H         1 MOL         0.0000
     45 H16        -3.2298   -3.1639    0.7700 H         1 MOL         0.0000
     46 H17         4.7242    2.2411    1.7493 H         1 MOL         0.0000
     47 H18         2.1682    1.0495    2.4213 H         1 MOL         0.0000
@<TRIPOS>BOND
     1    1    3 ar
     2    1    4 ar
     3    2    5 ar
     4    2    6 ar
     5    3    8 ar
     6    4    9 ar
     7    5   10 ar
     8    6   11 ar
     9    7   12 ar
    10    7   14 ar
    11    8   15 ar
    12    9   15 ar
    13   10   16 ar
    14   11   16 ar
    15   12   17 ar
    16   13   14 ar
    17   13   18 ar
    18   13   19 1
    19   14   21 1
    20   15   23 1
    21   16   23 1
    22   17   18 ar
    23   17   28 1
    24   18   29 1
    25   19   24 am
    26   19   26 2
    27   20   24 am
    28   20   25 am
    29   20   27 2
    30   21   24 1
    31   22   28 1
    32   22   29 1
    33   23   25 1
    34    1   30 1
    35    2   31 1
    36    3   32 1
    37    4   33 1
    38    5   34 1
    39    6   35 1
    40    7   36 1
    41    8   37 1
    42    9   38 1
    43   10   39 1
    44   11   40 1
    45   12   41 1
    46   21   42 1
    47   21   43 1
    48   22   44 1
    49   22   45 1
    50   23   46 1
    51   25   47 1
