@<TRIPOS>MOLECULE
AVX17260_0
   35    38     0     0     0
SMALL
NO_CHARGES

@<TRIPOS>ATOM
      1 C1         -0.8238    4.2076   -0.5556 C.ar      1 MOL         0.0000
      2 C2         -1.4699    4.7483   -1.6825 C.ar      1 MOL         0.0000
      3 C3          0.5542    3.9679   -0.5646 C.ar      1 MOL         0.0000
      4 C4          5.9090    5.0760   -2.0994 C.ar      1 MOL         0.0000
      5 C5         -0.7500    5.0579   -2.8377 C.ar      1 MOL         0.0000
      6 C6          7.2453    4.6864   -2.2181 C.ar      1 MOL         0.0000
      7 C7          5.5393    3.4269   -0.3467 C.ar      1 MOL         0.0000
      8 C8          1.2619    4.2805   -1.7104 C.ar      1 MOL         0.0000
      9 C9          5.0610    4.4499   -1.1690 C.ar      1 MOL         0.0000
     10 C10         0.6082    4.8117   -2.8202 C.ar      1 MOL         0.0000
     11 C11         7.6927    3.6739   -1.3945 C.ar      1 MOL         0.0000
     12 C12         6.8626    3.0611   -0.4838 C.ar      1 MOL         0.0000
     13 C13         2.8167    4.6719   -3.4550 C.2       1 MOL         0.0000
     14 C14         4.6724    2.7564    0.6356 C.2       1 MOL         0.0000
     15 C15         8.8257    2.1628   -0.3386 C.3       1 MOL         0.0000
     16 C16         2.7241    4.1246   -2.0173 C.3       1 MOL         0.0000
     17 C17         3.6274    4.9056   -1.0784 C.3       1 MOL         0.0000
     18 N1          1.5231    5.0390   -3.8417 N.am      1 MOL         0.0000
     19 O1          4.6002    3.2368    1.8284 O.co2     1 MOL         0.0000
     20 O2          3.8389    4.7599   -4.1183 O.2       1 MOL         0.0000
     21 O3          4.0146    1.7111    0.2704 O.co2     1 MOL         0.0000
     22 O4          8.9546    3.1652   -1.3677 O.3       1 MOL         0.0000
     23 O5          7.5008    2.0918    0.2270 O.3       1 MOL         0.0000
     24 H1         -1.4048    3.9720    0.3322 H         1 MOL         0.0000
     25 H2         -2.5416    4.9257   -1.6511 H         1 MOL         0.0000
     26 H3          1.0459    3.5465    0.3052 H         1 MOL         0.0000
     27 H4          5.5289    5.8719   -2.7355 H         1 MOL         0.0000
     28 H5         -1.2450    5.4737   -3.7077 H         1 MOL         0.0000
     29 H6          7.9025    5.1666   -2.9341 H         1 MOL         0.0000
     30 H7          9.0770    1.1858   -0.7671 H         1 MOL         0.0000
     31 H8          9.5379    2.3894    0.4632 H         1 MOL         0.0000
     32 H9          2.9887    3.0616   -2.0380 H         1 MOL         0.0000
     33 H10         3.2721    4.7990   -0.0456 H         1 MOL         0.0000
     34 H11         3.5667    5.9769   -1.3087 H         1 MOL         0.0000
     35 H12         1.2841    5.4212   -4.7491 H         1 MOL         0.0000
@<TRIPOS>BOND
     1    1    2 ar
     2    1    3 ar
     3    2    5 ar
     4    3    8 ar
     5    4    6 ar
     6    4    9 ar
     7    5   10 ar
     8    6   11 ar
     9    7    9 ar
    10    7   12 ar
    11    7   14 1
    12    8   10 ar
    13    8   16 1
    14    9   17 1
    15   10   18 1
    16   11   12 ar
    17   11   22 1
    18   12   23 1
    19   13   16 1
    20   13   18 am
    21   13   20 2
    22   14   19 1
    23   14   21 2
    24   15   22 1
    25   15   23 1
    26   16   17 1
    27    1   24 1
    28    2   25 1
    29    3   26 1
    30    4   27 1
    31    5   28 1
    32    6   29 1
    33   15   30 1
    34   15   31 1
    35   16   32 1
    36   17   33 1
    37   17   34 1
    38   18   35 1
