AVX17482_3
  -OEChem-04011314533D

 31 33  0     1  0  0  0  0  0999 V2000
    2.2812    1.1728   -0.9445 C   0  0  0  0  0  0  0  0  0  0  0  0
    2.1152   -0.0863   -1.5408 C   0  0  0  0  0  0  0  0  0  0  0  0
    1.2883    1.7046   -0.1203 C   0  0  0  0  0  0  0  0  0  0  0  0
    0.9541   -0.8316   -1.3212 C   0  0  0  0  0  0  0  0  0  0  0  0
   -4.6143   -3.8782    1.6393 C   0  0  0  0  0  0  0  0  0  0  0  0
    0.1458    0.9529    0.1025 C   0  0  0  0  0  0  0  0  0  0  0  0
   -0.0234   -0.3057   -0.4903 C   0  0  0  0  0  0  0  0  0  0  0  0
   -4.8922   -3.3112    0.4131 C   0  0  0  0  0  0  0  0  0  0  0  0
   -2.7425   -2.8843    0.4942 C   0  0  0  0  0  0  0  0  0  0  0  0
   -6.3008   -3.3078   -0.1897 C   0  0  0  0  0  0  0  0  0  0  0  0
   -1.0525    1.3347    0.9190 C   0  0  0  0  0  0  0  0  0  0  0  0
   -1.3674   -0.8830   -0.1311 C   0  0  2  0  0  0  0  0  0  0  0  0
   -1.7320   -0.0326    1.1107 C   0  0  1  0  0  0  0  0  0  0  0  0
   -1.3739   -2.3856    0.1123 C   0  0  0  0  0  0  0  0  0  0  0  0
   -3.8202   -2.7405   -0.2448 N   0  0  0  0  0  0  0  0  0  0  0  0
   -6.4257   -2.7582   -1.3166 O   0  5  0  0  0  0  0  0  0  0  0  0
   -7.2046   -3.8546    0.4971 O   0  0  0  0  0  0  0  0  0  0  0  0
   -1.2353   -0.6403    2.3037 O   0  0  0  0  0  0  0  0  0  0  0  0
   -2.9458   -3.6968    1.9920 S   0  0  0  0  0  0  0  0  0  0  0  0
    3.1883    1.7409   -1.1319 H   0  0  0  0  0  0  0  0  0  0  0  0
    2.8953   -0.4814   -2.1859 H   0  0  0  0  0  0  0  0  0  0  0  0
    1.4130    2.6827    0.3318 H   0  0  0  0  0  0  0  0  0  0  0  0
    0.8292   -1.7967   -1.8000 H   0  0  0  0  0  0  0  0  0  0  0  0
   -5.2858   -4.3751    2.3253 H   0  0  0  0  0  0  0  0  0  0  0  0
   -0.7632    1.7944    1.8687 H   0  0  0  0  0  0  0  0  0  0  0  0
   -1.6848    2.0132    0.3371 H   0  0  0  0  0  0  0  0  0  0  0  0
   -2.0602   -0.6393   -0.9444 H   0  0  0  0  0  0  0  0  0  0  0  0
   -2.8161    0.0710    1.2272 H   0  0  0  0  0  0  0  0  0  0  0  0
   -0.6556   -2.6349    0.9022 H   0  0  0  0  0  0  0  0  0  0  0  0
   -1.0280   -2.9071   -0.7880 H   0  0  0  0  0  0  0  0  0  0  0  0
   -1.4541   -0.0369    3.0296 H   0  0  0  0  0  0  0  0  0  0  0  0
  1  2  2  0  0  0  0
  1  3  1  0  0  0  0
  2  4  1  0  0  0  0
  3  6  2  0  0  0  0
  4  7  2  0  0  0  0
  5  8  2  0  0  0  0
  5 19  1  0  0  0  0
  6  7  1  0  0  0  0
  6 11  1  0  0  0  0
  7 12  1  0  0  0  0
  8 10  1  0  0  0  0
  8 15  1  0  0  0  0
  9 14  1  0  0  0  0
  9 15  2  0  0  0  0
  9 19  1  0  0  0  0
 10 16  1  0  0  0  0
 10 17  2  0  0  0  0
 11 13  1  0  0  0  0
 12 13  1  0  0  0  0
 12 14  1  0  0  0  0
 13 18  1  0  0  0  0
  1 20  1  0  0  0  0
  2 21  1  0  0  0  0
  3 22  1  0  0  0  0
  4 23  1  0  0  0  0
  5 24  1  0  0  0  0
 11 25  1  0  0  0  0
 11 26  1  0  0  0  0
 12 27  1  0  0  0  0
 13 28  1  0  0  0  0
 14 29  1  0  0  0  0
 14 30  1  0  0  0  0
 18 31  1  0  0  0  0
M  CHG  1  16  -1
M  END
$$$$
