@<TRIPOS>MOLECULE
AVX17544_0
   38    40     0     0     0
SMALL
NO_CHARGES

@<TRIPOS>ATOM
      1 C1          1.4544    0.6258    1.5247 C.ar      1 MOL         0.0000
      2 C2          1.3638   -0.5924    2.2034 C.ar      1 MOL         0.0000
      3 C3         -0.3634   -0.0266    0.0399 C.ar      1 MOL         0.0000
      4 C4          0.5943    0.9261    0.4454 C.ar      1 MOL         0.0000
      5 C5          0.4045   -1.4920    1.7881 C.ar      1 MOL         0.0000
      6 C6         -0.4418   -1.2210    0.7372 C.ar      1 MOL         0.0000
      7 C7         -1.2904    0.2287   -1.0875 C.2       1 MOL         0.0000
      8 C8          0.6928    2.2689   -0.2353 C.3       1 MOL         0.0000
      9 C9          0.6555    1.0129   -2.4843 C.3       1 MOL         0.0000
     10 C10        -0.9023   -3.1930    1.5127 C.3       1 MOL         0.0000
     11 C11         1.2254    2.1893   -1.6775 C.3       1 MOL         0.0000
     12 C12         3.0928    4.6209   -1.5384 C.3       1 MOL         0.0000
     13 C13         1.2100    6.0078   -2.4298 C.3       1 MOL         0.0000
     14 C14         0.9618    3.5165   -2.3950 C.3       1 MOL         0.0000
     15 C15         1.5733    4.7267   -1.6754 C.3       1 MOL         0.0000
     16 N1         -0.7592    0.7861   -2.2389 N.am      1 MOL         0.0000
     17 O1         -2.4785   -0.0578   -0.9629 O.2       1 MOL         0.0000
     18 O2          0.1801   -2.7180    2.3358 O.3       1 MOL         0.0000
     19 O3         -1.2968   -2.2533    0.4943 O.3       1 MOL         0.0000
     20 H1          2.2070    1.3455    1.8387 H         1 MOL         0.0000
     21 H2          2.0321   -0.8182    3.0268 H         1 MOL         0.0000
     22 H3         -0.2765    2.7796   -0.2211 H         1 MOL         0.0000
     23 H4          1.3557    2.9036    0.3656 H         1 MOL         0.0000
     24 H5          0.7897    1.1664   -3.5626 H         1 MOL         0.0000
     25 H6          1.1840    0.0886   -2.2231 H         1 MOL         0.0000
     26 H7         -0.5927   -4.1264    1.0287 H         1 MOL         0.0000
     27 H8         -1.7669   -3.3992    2.1539 H         1 MOL         0.0000
     28 H9          2.3103    2.0708   -1.6026 H         1 MOL         0.0000
     29 H10         3.5758    4.5488   -2.5186 H         1 MOL         0.0000
     30 H11         3.3797    3.7434   -0.9510 H         1 MOL         0.0000
     31 H12         3.4983    5.5002   -1.0261 H         1 MOL         0.0000
     32 H13         1.6146    5.9982   -3.4477 H         1 MOL         0.0000
     33 H14         1.6076    6.8890   -1.9152 H         1 MOL         0.0000
     34 H15         0.1232    6.1248   -2.4978 H         1 MOL         0.0000
     35 H16         1.3458    3.4431   -3.4167 H         1 MOL         0.0000
     36 H17        -0.1225    3.6446   -2.4674 H         1 MOL         0.0000
     37 H18         1.1422    4.7960   -0.6686 H         1 MOL         0.0000
     38 H19        -1.4095    1.0580   -2.9697 H         1 MOL         0.0000
@<TRIPOS>BOND
     1    1    2 ar
     2    1    4 ar
     3    2    5 ar
     4    3    4 ar
     5    3    6 ar
     6    3    7 1
     7    4    8 1
     8    5    6 ar
     9    5   18 1
    10    6   19 1
    11    7   16 am
    12    7   17 2
    13    8   11 1
    14    9   11 1
    15    9   16 1
    16   10   18 1
    17   10   19 1
    18   11   14 1
    19   12   15 1
    20   13   15 1
    21   14   15 1
    22    1   20 1
    23    2   21 1
    24    8   22 1
    25    8   23 1
    26    9   24 1
    27    9   25 1
    28   10   26 1
    29   10   27 1
    30   11   28 1
    31   12   29 1
    32   12   30 1
    33   12   31 1
    34   13   32 1
    35   13   33 1
    36   13   34 1
    37   14   35 1
    38   14   36 1
    39   15   37 1
    40   16   38 1
