@<TRIPOS>MOLECULE
AVX101124_2
   57    60     0     0     0
SMALL
NO_CHARGES

@<TRIPOS>ATOM
      1 C1         -2.5732   -3.1272    1.4546 C.ar      1 MOL         0.0000
      2 C2         -2.3121   -3.2659    0.0841 C.ar      1 MOL         0.0000
      3 C3         -1.9935   -2.0891    2.1885 C.ar      1 MOL         0.0000
      4 C4         -0.2722    2.6638    3.9575 C.ar      1 MOL         0.0000
      5 C5         -1.4673   -2.3684   -0.5703 C.ar      1 MOL         0.0000
      6 C6          0.3765    3.8225    4.3912 C.ar      1 MOL         0.0000
      7 C7         -1.1565   -1.1976    1.5316 C.ar      1 MOL         0.0000
      8 C8          0.4481    1.4732    3.7557 C.ar      1 MOL         0.0000
      9 C9          1.8254    1.4278    3.9850 C.ar      1 MOL         0.0000
     10 C10        -0.9019   -1.3354    0.1633 C.ar      1 MOL         0.0000
     11 C11         1.7368    3.7509    4.6104 C.ar      1 MOL         0.0000
     12 C12         2.4419    2.5856    4.4129 C.ar      1 MOL         0.0000
     13 C13        -0.4350   -0.0272    2.0283 C.2       1 MOL         0.0000
     14 C14        -0.2677    0.3151    3.3105 C.2       1 MOL         0.0000
     15 C15         2.6112    0.1970    3.7870 C.2       1 MOL         0.0000
     16 C16        -0.1484    3.0163   -0.0258 C.2       1 MOL         0.0000
     17 C17         0.0640   -0.3036   -0.3389 C.3       1 MOL         0.0000
     18 C18         3.8175    4.1178    5.0777 C.3       1 MOL         0.0000
     19 C19         0.1425    0.6943    0.8317 C.3       1 MOL         0.0000
     20 C20        -1.2065    4.1015   -0.1403 C.3       1 MOL         0.0000
     21 C21        -0.6416    5.5204   -0.0889 C.3       1 MOL         0.0000
     22 C22         0.0966    5.8075    1.2233 C.3       1 MOL         0.0000
     23 C23         0.6286    7.2437    1.2541 C.3       1 MOL         0.0000
     24 C24         1.3643    7.5905    2.5426 C.3       1 MOL         0.0000
     25 N1         -0.6538    1.8731    0.5762 N.am      1 MOL         0.0000
     26 N2          1.8431    8.9924    2.5115 N.4       1 MOL         0.0000
     27 O1          2.7526   -0.6121    4.7778 O.co2     1 MOL         0.0000
     28 O2          3.1293   -0.0260    2.6301 O.co2     1 MOL         0.0000
     29 O3          1.0099    3.1633   -0.4062 O.2       1 MOL         0.0000
     30 O4          2.5324    4.7711    5.0324 O.3       1 MOL         0.0000
     31 O5          3.7671    2.7305    4.6862 O.3       1 MOL         0.0000
     32 H1         -3.2329   -3.8346    1.9497 H         1 MOL         0.0000
     33 H2         -2.7680   -4.0814   -0.4708 H         1 MOL         0.0000
     34 H3         -2.2084   -1.9930    3.2477 H         1 MOL         0.0000
     35 H4         -1.3450    2.6985    3.7797 H         1 MOL         0.0000
     36 H5         -1.2577   -2.4834   -1.6285 H         1 MOL         0.0000
     37 H6         -0.1758    4.7422    4.5475 H         1 MOL         0.0000
     38 H7         -0.6835   -0.3498    4.0655 H         1 MOL         0.0000
     39 H8          1.0377   -0.7787   -0.5045 H         1 MOL         0.0000
     40 H9         -0.2805    0.1585   -1.2697 H         1 MOL         0.0000
     41 H10         4.5043    4.6474    4.4075 H         1 MOL         0.0000
     42 H11         4.2059    4.1796    6.1007 H         1 MOL         0.0000
     43 H12         1.1734    1.0262    0.9940 H         1 MOL         0.0000
     44 H13        -1.7792    3.9545   -1.0634 H         1 MOL         0.0000
     45 H14        -1.8963    3.9643    0.7015 H         1 MOL         0.0000
     46 H15         0.0595    5.6441   -0.9234 H         1 MOL         0.0000
     47 H16        -1.4430    6.2546   -0.2344 H         1 MOL         0.0000
     48 H17         0.9322    5.1056    1.3331 H         1 MOL         0.0000
     49 H18        -0.5782    5.6413    2.0693 H         1 MOL         0.0000
     50 H19         1.3235    7.3847    0.4171 H         1 MOL         0.0000
     51 H20        -0.1993    7.9464    1.0983 H         1 MOL         0.0000
     52 H21         0.7244    7.4884    3.4239 H         1 MOL         0.0000
     53 H22         2.2513    6.9618    2.6647 H         1 MOL         0.0000
     54 H23        -1.6317    1.8640    0.8508 H         1 MOL         0.0000
     55 H24         1.3958    9.5180    1.7521 H         1 MOL         0.0000
     56 H25         2.8583    9.0315    2.3658 H         1 MOL         0.0000
     57 H26         1.6330    9.4734    3.3935 H         1 MOL         0.0000
@<TRIPOS>BOND
     1    1    2 ar
     2    1    3 ar
     3    2    5 ar
     4    3    7 ar
     5    4    6 ar
     6    4    8 ar
     7    5   10 ar
     8    6   11 ar
     9    7   10 ar
    10    7   13 1
    11    8    9 ar
    12    8   14 1
    13    9   12 ar
    14    9   15 1
    15   10   17 1
    16   11   12 ar
    17   11   30 1
    18   12   31 1
    19   13   14 2
    20   13   19 1
    21   15   27 1
    22   15   28 2
    23   16   20 1
    24   16   25 am
    25   16   29 2
    26   17   19 1
    27   18   30 1
    28   18   31 1
    29   19   25 1
    30   20   21 1
    31   21   22 1
    32   22   23 1
    33   23   24 1
    34   24   26 1
    35    1   32 1
    36    2   33 1
    37    3   34 1
    38    4   35 1
    39    5   36 1
    40    6   37 1
    41   14   38 1
    42   17   39 1
    43   17   40 1
    44   18   41 1
    45   18   42 1
    46   19   43 1
    47   20   44 1
    48   20   45 1
    49   21   46 1
    50   21   47 1
    51   22   48 1
    52   22   49 1
    53   23   50 1
    54   23   51 1
    55   24   52 1
    56   24   53 1
    57   25   54 1
    58   26   55 1
    59   26   56 1
    60   26   57 1
