AVX17478_0
  -OEChem-04011314533D

 38 40  0     0  0  0  0  0  0999 V2000
   -2.6012   -3.8484    3.0930 C   0  0  0  0  0  0  0  0  0  0  0  0
   -1.8909   -3.1529    4.0695 C   0  0  0  0  0  0  0  0  0  0  0  0
   -2.9825   -3.2210    1.9014 C   0  0  0  0  0  0  0  0  0  0  0  0
   -1.5397   -1.8122    3.8877 C   0  0  0  0  0  0  0  0  0  0  0  0
   -2.6397   -1.8699    1.6957 C   0  0  0  0  0  0  0  0  0  0  0  0
   -2.8559   -0.9420    0.6387 C   0  0  0  0  0  0  0  0  0  0  0  0
   -1.9277   -1.1980    2.6916 C   0  0  0  0  0  0  0  0  0  0  0  0
   -2.2819    0.2530    1.0067 C   0  0  0  0  0  0  0  0  0  0  0  0
   -3.5925   -1.2236   -0.6655 C   0  0  0  0  0  0  0  0  0  0  0  0
   -2.2342    1.5082    0.2662 C   0  0  0  0  0  0  0  0  0  0  0  0
   -0.0314    0.7682   -0.8025 C   0  0  0  0  0  0  0  0  0  0  0  0
   -0.9908    2.9802   -1.2944 C   0  0  0  0  0  0  0  0  0  0  0  0
    0.1583    0.4927   -2.2869 C   0  0  0  0  0  0  0  0  0  0  0  0
   -0.8103    2.7493   -2.7885 C   0  0  0  0  0  0  0  0  0  0  0  0
    0.6394    1.6063   -4.4706 C   0  0  0  0  0  0  0  0  0  0  0  0
   -1.7244    0.0887    2.2463 N   0  0  0  0  0  0  0  0  0  0  0  0
   -1.1396    1.7077   -0.5886 N   0  0  0  0  0  0  0  0  0  0  0  0
    0.3547    1.8089   -3.0089 N   0  3  0  0  0  0  0  0  0  0  0  0
   -3.6820   -0.2659   -1.4849 O   0  5  0  0  0  0  0  0  0  0  0  0
   -4.0519   -2.3909   -0.8172 O   0  0  0  0  0  0  0  0  0  0  0  0
   -3.1413    2.3268    0.4130 O   0  0  0  0  0  0  0  0  0  0  0  0
   -2.8630   -4.8902    3.2575 H   0  0  0  0  0  0  0  0  0  0  0  0
   -1.6046   -3.6594    4.9874 H   0  0  0  0  0  0  0  0  0  0  0  0
   -3.5366   -3.7767    1.1502 H   0  0  0  0  0  0  0  0  0  0  0  0
   -0.9874   -1.2716    4.6487 H   0  0  0  0  0  0  0  0  0  0  0  0
   -0.1948   -0.1759   -0.2773 H   0  0  0  0  0  0  0  0  0  0  0  0
    0.8693    1.2253   -0.3751 H   0  0  0  0  0  0  0  0  0  0  0  0
   -0.1166    3.4900   -0.8721 H   0  0  0  0  0  0  0  0  0  0  0  0
   -1.8591    3.6239   -1.1236 H   0  0  0  0  0  0  0  0  0  0  0  0
    1.0512   -0.1160   -2.4614 H   0  0  0  0  0  0  0  0  0  0  0  0
   -0.7183    0.0048   -2.7276 H   0  0  0  0  0  0  0  0  0  0  0  0
   -1.6955    2.2847   -3.2373 H   0  0  0  0  0  0  0  0  0  0  0  0
   -0.5805    3.6872   -3.3040 H   0  0  0  0  0  0  0  0  0  0  0  0
   -0.2355    1.1315   -4.9185 H   0  0  0  0  0  0  0  0  0  0  0  0
    0.8244    2.5865   -4.9140 H   0  0  0  0  0  0  0  0  0  0  0  0
    1.5193    0.9654   -4.5539 H   0  0  0  0  0  0  0  0  0  0  0  0
   -1.2334    0.8058    2.7625 H   0  0  0  0  0  0  0  0  0  0  0  0
    1.1900    2.2564   -2.6073 H   0  0  0  0  0  0  0  0  0  0  0  0
  1  2  2  0  0  0  0
  1  3  1  0  0  0  0
  2  4  1  0  0  0  0
  3  5  2  0  0  0  0
  4  7  2  0  0  0  0
  5  6  1  0  0  0  0
  5  7  1  0  0  0  0
  6  8  2  0  0  0  0
  6  9  1  0  0  0  0
  7 16  1  0  0  0  0
  8 10  1  0  0  0  0
  8 16  1  0  0  0  0
  9 19  1  0  0  0  0
  9 20  2  0  0  0  0
 10 17  1  0  0  0  0
 10 21  2  0  0  0  0
 11 13  1  0  0  0  0
 11 17  1  0  0  0  0
 12 14  1  0  0  0  0
 12 17  1  0  0  0  0
 13 18  1  0  0  0  0
 14 18  1  0  0  0  0
 15 18  1  0  0  0  0
  1 22  1  0  0  0  0
  2 23  1  0  0  0  0
  3 24  1  0  0  0  0
  4 25  1  0  0  0  0
 11 26  1  0  0  0  0
 11 27  1  0  0  0  0
 12 28  1  0  0  0  0
 12 29  1  0  0  0  0
 13 30  1  0  0  0  0
 13 31  1  0  0  0  0
 14 32  1  0  0  0  0
 14 33  1  0  0  0  0
 15 34  1  0  0  0  0
 15 35  1  0  0  0  0
 15 36  1  0  0  0  0
 16 37  1  0  0  0  0
 18 38  1  0  0  0  0
M  CHG  2  18   1  19  -1
M  END
$$$$
