AVX101125_0
  -OEChem-04011314513D

 48 51  0     0  0  0  0  0  0999 V2000
    1.4794   -4.1242    2.5910 C   0  0  0  0  0  0  0  0  0  0  0  0
    2.1650   -2.9146    2.4794 C   0  0  0  0  0  0  0  0  0  0  0  0
    0.4811   -4.4474    1.6719 C   0  0  0  0  0  0  0  0  0  0  0  0
    1.8524   -2.0283    1.4488 C   0  0  0  0  0  0  0  0  0  0  0  0
    0.1685   -3.5610    0.6413 C   0  0  0  0  0  0  0  0  0  0  0  0
   -1.0935   -0.1030    1.8271 C   0  0  0  0  0  0  0  0  0  0  0  0
   -1.3530    0.4583    3.0797 C   0  0  0  0  0  0  0  0  0  0  0  0
    5.1232   -1.6969   -4.0463 C   0  0  0  0  0  0  0  0  0  0  0  0
    4.6926   -3.3177   -2.3168 C   0  0  0  0  0  0  0  0  0  0  0  0
    6.3469   -2.3104   -4.2739 C   0  0  0  0  0  0  0  0  0  0  0  0
    5.9270   -3.8902   -2.5883 C   0  0  0  0  0  0  0  0  0  0  0  0
    0.8542   -2.3514    0.5297 C   0  0  0  0  0  0  0  0  0  0  0  0
   -0.1481    0.4787    0.9641 C   0  0  0  0  0  0  0  0  0  0  0  0
    4.2904   -2.2094   -3.0562 C   0  0  0  0  0  0  0  0  0  0  0  0
    0.5485    1.6286    1.3437 C   0  0  0  0  0  0  0  0  0  0  0  0
   -0.6516    1.5936    3.4303 C   0  0  0  0  0  0  0  0  0  0  0  0
    0.2737    2.1630    2.5857 C   0  0  0  0  0  0  0  0  0  0  0  0
    0.0823   -0.1497   -0.3310 C   0  0  0  0  0  0  0  0  0  0  0  0
    0.5220   -1.4112   -0.5642 C   0  0  0  0  0  0  0  0  0  0  0  0
    2.9739   -1.5749   -2.7892 C   0  0  0  0  0  0  0  0  0  0  0  0
    1.5481    2.2630    0.4664 C   0  0  0  0  0  0  0  0  0  0  0  0
    0.1843    3.3377    4.4006 C   0  0  0  0  0  0  0  0  0  0  0  0
    0.6598   -1.9438   -1.9738 C   0  0  0  0  0  0  0  0  0  0  0  0
    6.7093   -3.3764   -3.5473 N   0  3  0  0  0  0  0  0  0  0  0  0
    2.0128   -2.4119   -2.2673 N   0  0  0  0  0  0  0  0  0  0  0  0
    2.7761    1.8882    0.5565 O   0  5  0  0  0  0  0  0  0  0  0  0
    2.8148   -0.3871   -3.0581 O   0  0  0  0  0  0  0  0  0  0  0  0
    1.1587    3.1702   -0.3594 O   0  0  0  0  0  0  0  0  0  0  0  0
   -0.7698    2.2750    4.6024 O   0  0  0  0  0  0  0  0  0  0  0  0
    0.8505    3.2723    3.1230 O   0  0  0  0  0  0  0  0  0  0  0  0
    1.7236   -4.8149    3.3927 H   0  0  0  0  0  0  0  0  0  0  0  0
    2.9432   -2.6632    3.1943 H   0  0  0  0  0  0  0  0  0  0  0  0
   -0.0520   -5.3897    1.7580 H   0  0  0  0  0  0  0  0  0  0  0  0
    2.3957   -1.0891    1.3749 H   0  0  0  0  0  0  0  0  0  0  0  0
   -0.6121   -3.8273   -0.0674 H   0  0  0  0  0  0  0  0  0  0  0  0
   -1.6352   -0.9991    1.5315 H   0  0  0  0  0  0  0  0  0  0  0  0
   -2.0816    0.0125    3.7475 H   0  0  0  0  0  0  0  0  0  0  0  0
    4.8314   -0.8336   -4.6362 H   0  0  0  0  0  0  0  0  0  0  0  0
    4.0603   -3.7351   -1.5392 H   0  0  0  0  0  0  0  0  0  0  0  0
    7.0561   -1.9822   -5.0210 H   0  0  0  0  0  0  0  0  0  0  0  0
    6.3197   -4.7515   -2.0657 H   0  0  0  0  0  0  0  0  0  0  0  0
   -0.1273    0.4943   -1.1892 H   0  0  0  0  0  0  0  0  0  0  0  0
   -0.3388    4.2980    4.4755 H   0  0  0  0  0  0  0  0  0  0  0  0
    0.9396    3.2853    5.1931 H   0  0  0  0  0  0  0  0  0  0  0  0
    0.3928   -1.1770   -2.7109 H   0  0  0  0  0  0  0  0  0  0  0  0
   -0.0433   -2.7702   -2.1284 H   0  0  0  0  0  0  0  0  0  0  0  0
    7.6128   -3.8119   -3.7303 H   0  0  0  0  0  0  0  0  0  0  0  0
    2.1844   -3.3946   -2.1265 H   0  0  0  0  0  0  0  0  0  0  0  0
  1  2  2  0  0  0  0
  1  3  1  0  0  0  0
  2  4  1  0  0  0  0
  3  5  2  0  0  0  0
  4 12  2  0  0  0  0
  5 12  1  0  0  0  0
  6  7  2  0  0  0  0
  6 13  1  0  0  0  0
  7 16  1  0  0  0  0
  8 10  1  0  0  0  0
  8 14  2  0  0  0  0
  9 11  2  0  0  0  0
  9 14  1  0  0  0  0
 10 24  2  0  0  0  0
 11 24  1  0  0  0  0
 12 19  1  0  0  0  0
 13 15  2  0  0  0  0
 13 18  1  0  0  0  0
 14 20  1  0  0  0  0
 15 17  1  0  0  0  0
 15 21  1  0  0  0  0
 16 17  2  0  0  0  0
 16 29  1  0  0  0  0
 17 30  1  0  0  0  0
 18 19  2  0  0  0  0
 19 23  1  0  0  0  0
 20 25  1  0  0  0  0
 20 27  2  0  0  0  0
 21 26  1  0  0  0  0
 21 28  2  0  0  0  0
 22 29  1  0  0  0  0
 22 30  1  0  0  0  0
 23 25  1  0  0  0  0
  1 31  1  0  0  0  0
  2 32  1  0  0  0  0
  3 33  1  0  0  0  0
  4 34  1  0  0  0  0
  5 35  1  0  0  0  0
  6 36  1  0  0  0  0
  7 37  1  0  0  0  0
  8 38  1  0  0  0  0
  9 39  1  0  0  0  0
 10 40  1  0  0  0  0
 11 41  1  0  0  0  0
 18 42  1  0  0  0  0
 22 43  1  0  0  0  0
 22 44  1  0  0  0  0
 23 45  1  0  0  0  0
 23 46  1  0  0  0  0
 24 47  1  0  0  0  0
 25 48  1  0  0  0  0
M  CHG  2  24   1  26  -1
M  END
$$$$
