AVX17560_0
  -OEChem-04011314543D

 54 55  0     1  0  0  0  0  0999 V2000
   -2.2653    1.6460   -2.7314 C   0  0  0  0  0  0  0  0  0  0  0  0
   -2.4033    2.8517   -3.4232 C   0  0  0  0  0  0  0  0  0  0  0  0
   -3.1942    2.6467   -0.7155 C   0  0  0  0  0  0  0  0  0  0  0  0
   -2.6585    1.5440   -1.3854 C   0  0  0  0  0  0  0  0  0  0  0  0
   -2.9350    3.9254   -2.7388 C   0  0  0  0  0  0  0  0  0  0  0  0
   -3.3199    3.8256   -1.4213 C   0  0  0  0  0  0  0  0  0  0  0  0
   -3.6142    2.5657    0.6927 C   0  0  0  0  0  0  0  0  0  0  0  0
    2.1868    0.6571   -0.8641 C   0  0  0  0  0  0  0  0  0  0  0  0
   -3.7025    5.8446   -2.0989 C   0  0  0  0  0  0  0  0  0  0  0  0
   -1.1429   -3.0784   -2.0429 C   0  0  0  0  0  0  0  0  0  0  0  0
   -1.5340   -4.1008    0.2070 C   0  0  0  0  0  0  0  0  0  0  0  0
   -2.4894    0.2190   -0.6808 C   0  0  0  0  0  0  0  0  0  0  0  0
    3.5636    0.1293   -0.5012 C   0  0  0  0  0  0  0  0  0  0  0  0
    4.6024    0.4142   -1.5831 C   0  0  0  0  0  0  0  0  0  0  0  0
   -0.9360   -1.6641    0.0717 C   0  0  0  0  0  0  0  0  0  0  0  0
   -0.1280    0.7815    0.0352 C   0  0  0  0  0  0  0  0  0  0  0  0
    5.9579   -0.1630   -1.2049 C   0  0  0  0  0  0  0  0  0  0  0  0
   -1.6703   -2.8251   -0.6302 C   0  0  0  0  0  0  0  0  0  0  0  0
   -1.0240   -0.2830   -0.6244 C   0  0  2  0  0  0  0  0  0  0  0  0
    1.2517    0.3901    0.1308 N   0  0  0  0  0  0  0  0  0  0  0  0
    6.9423    0.1768   -2.2604 N   0  3  0  0  0  0  0  0  0  0  0  0
   -4.8279    2.2269    0.9590 O   0  5  0  0  0  0  0  0  0  0  0  0
   -2.7544    2.8367    1.6126 O   0  0  0  0  0  0  0  0  0  0  0  0
    1.9468    1.2450   -1.9153 O   0  0  0  0  0  0  0  0  0  0  0  0
   -3.1438    5.1710   -3.2454 O   0  0  0  0  0  0  0  0  0  0  0  0
   -3.8176    4.9964   -0.9380 O   0  0  0  0  0  0  0  0  0  0  0  0
   -1.8496    0.7827   -3.2457 H   0  0  0  0  0  0  0  0  0  0  0  0
   -2.1015    2.9346   -4.4610 H   0  0  0  0  0  0  0  0  0  0  0  0
   -3.0629    6.6984   -1.8475 H   0  0  0  0  0  0  0  0  0  0  0  0
   -4.6994    6.2167   -2.3619 H   0  0  0  0  0  0  0  0  0  0  0  0
   -0.0735   -3.3144   -2.0311 H   0  0  0  0  0  0  0  0  0  0  0  0
   -1.6688   -3.9188   -2.5089 H   0  0  0  0  0  0  0  0  0  0  0  0
   -1.2927   -2.2070   -2.6871 H   0  0  0  0  0  0  0  0  0  0  0  0
   -0.4820   -4.3875    0.3109 H   0  0  0  0  0  0  0  0  0  0  0  0
   -2.0607   -4.9355   -0.2674 H   0  0  0  0  0  0  0  0  0  0  0  0
   -1.9486   -3.9643    1.2116 H   0  0  0  0  0  0  0  0  0  0  0  0
   -3.1137   -0.5148   -1.2083 H   0  0  0  0  0  0  0  0  0  0  0  0
   -2.9042    0.2839    0.3335 H   0  0  0  0  0  0  0  0  0  0  0  0
    3.4829   -0.9518   -0.3357 H   0  0  0  0  0  0  0  0  0  0  0  0
    3.8702    0.5936    0.4438 H   0  0  0  0  0  0  0  0  0  0  0  0
    4.6874    1.4976   -1.7368 H   0  0  0  0  0  0  0  0  0  0  0  0
    4.2674   -0.0120   -2.5374 H   0  0  0  0  0  0  0  0  0  0  0  0
   -1.3214   -1.5728    1.0960 H   0  0  0  0  0  0  0  0  0  0  0  0
    0.1205   -1.9437    0.1722 H   0  0  0  0  0  0  0  0  0  0  0  0
   -0.1586    1.7146   -0.5378 H   0  0  0  0  0  0  0  0  0  0  0  0
   -0.4714    1.0181    1.0466 H   0  0  0  0  0  0  0  0  0  0  0  0
    6.3369    0.2596   -0.2697 H   0  0  0  0  0  0  0  0  0  0  0  0
    5.9336   -1.2543   -1.1331 H   0  0  0  0  0  0  0  0  0  0  0  0
   -2.7397   -2.5943   -0.6954 H   0  0  0  0  0  0  0  0  0  0  0  0
   -0.6696   -0.3978   -1.6566 H   0  0  0  0  0  0  0  0  0  0  0  0
    1.5461   -0.1381    0.9511 H   0  0  0  0  0  0  0  0  0  0  0  0
    7.2215   -0.6590   -2.7856 H   0  0  0  0  0  0  0  0  0  0  0  0
    7.7883    0.5910   -1.8537 H   0  0  0  0  0  0  0  0  0  0  0  0
    6.5494    0.8513   -2.9262 H   0  0  0  0  0  0  0  0  0  0  0  0
  1  2  2  0  0  0  0
  1  4  1  0  0  0  0
  2  5  1  0  0  0  0
  3  4  2  0  0  0  0
  3  6  1  0  0  0  0
  3  7  1  0  0  0  0
  4 12  1  0  0  0  0
  5  6  2  0  0  0  0
  5 25  1  0  0  0  0
  6 26  1  0  0  0  0
  7 22  1  0  0  0  0
  7 23  2  0  0  0  0
  8 13  1  0  0  0  0
  8 20  1  0  0  0  0
  8 24  2  0  0  0  0
  9 25  1  0  0  0  0
  9 26  1  0  0  0  0
 10 18  1  0  0  0  0
 11 18  1  0  0  0  0
 12 19  1  0  0  0  0
 13 14  1  0  0  0  0
 14 17  1  0  0  0  0
 15 18  1  0  0  0  0
 15 19  1  0  0  0  0
 16 19  1  0  0  0  0
 16 20  1  0  0  0  0
 17 21  1  0  0  0  0
  1 27  1  0  0  0  0
  2 28  1  0  0  0  0
  9 29  1  0  0  0  0
  9 30  1  0  0  0  0
 10 31  1  0  0  0  0
 10 32  1  0  0  0  0
 10 33  1  0  0  0  0
 11 34  1  0  0  0  0
 11 35  1  0  0  0  0
 11 36  1  0  0  0  0
 12 37  1  0  0  0  0
 12 38  1  0  0  0  0
 13 39  1  0  0  0  0
 13 40  1  0  0  0  0
 14 41  1  0  0  0  0
 14 42  1  0  0  0  0
 15 43  1  0  0  0  0
 15 44  1  0  0  0  0
 16 45  1  0  0  0  0
 16 46  1  0  0  0  0
 17 47  1  0  0  0  0
 17 48  1  0  0  0  0
 18 49  1  0  0  0  0
 19 50  1  0  0  0  0
 20 51  1  0  0  0  0
 21 52  1  0  0  0  0
 21 53  1  0  0  0  0
 21 54  1  0  0  0  0
M  CHG  2  21   1  22  -1
M  END
$$$$
