AVX17685_0
  -OEChem-04011314553D

 44 47  0     1  0  0  0  0  0999 V2000
   -0.9129    0.8768    2.8543 C   0  0  0  0  0  0  0  0  0  0  0  0
   -1.8109    1.5847    2.0580 C   0  0  0  0  0  0  0  0  0  0  0  0
    0.1514    0.1930    2.2689 C   0  0  0  0  0  0  0  0  0  0  0  0
   -1.6448    1.6171    0.6725 C   0  0  0  0  0  0  0  0  0  0  0  0
   -2.8640   -2.8807   -2.7464 C   0  0  0  0  0  0  0  0  0  0  0  0
   -3.0786   -4.0614   -3.4614 C   0  0  0  0  0  0  0  0  0  0  0  0
    0.3121    0.2117    0.8783 C   0  0  0  0  0  0  0  0  0  0  0  0
   -1.8717   -1.8255   -4.7034 C   0  0  0  0  0  0  0  0  0  0  0  0
   -0.5790    0.9389    0.0662 C   0  0  0  0  0  0  0  0  0  0  0  0
   -2.2641   -1.7691   -3.3638 C   0  0  0  0  0  0  0  0  0  0  0  0
   -2.6819   -4.0910   -4.7826 C   0  0  0  0  0  0  0  0  0  0  0  0
   -2.0948   -3.0030   -5.3870 C   0  0  0  0  0  0  0  0  0  0  0  0
    1.4688   -0.5195    0.3002 C   0  0  0  0  0  0  0  0  0  0  0  0
   -1.2427   -0.6756   -5.3729 C   0  0  0  0  0  0  0  0  0  0  0  0
   -0.4028    1.0007   -1.4264 C   0  0  0  0  0  0  0  0  0  0  0  0
   -0.0811   -1.5198   -1.4068 C   0  0  0  0  0  0  0  0  0  0  0  0
   -2.2371   -4.6022   -6.8375 C   0  0  0  0  0  0  0  0  0  0  0  0
    2.3717   -1.8681   -1.5691 C   0  0  0  0  0  0  0  0  0  0  0  0
   -2.0549   -0.5234   -2.5542 C   0  0  0  0  0  0  0  0  0  0  0  0
    1.2500   -1.2662   -0.8644 N   0  0  0  0  0  0  0  0  0  0  0  0
   -0.6200   -0.3174   -2.1491 N   0  3  1  0  0  0  0  0  0  0  0  0
   -1.9957    0.1825   -5.9692 O   0  5  0  0  0  0  0  0  0  0  0  0
    2.5525   -0.4087    0.8716 O   0  0  0  0  0  0  0  0  0  0  0  0
    0.0401   -0.5653   -5.3410 O   0  0  0  0  0  0  0  0  0  0  0  0
   -2.8101   -5.1470   -5.6313 O   0  0  0  0  0  0  0  0  0  0  0  0
   -1.7816   -3.2417   -6.6896 O   0  0  0  0  0  0  0  0  0  0  0  0
   -1.0430    0.8573    3.9324 H   0  0  0  0  0  0  0  0  0  0  0  0
   -2.6399    2.1159    2.5166 H   0  0  0  0  0  0  0  0  0  0  0  0
    0.8393   -0.3577    2.9052 H   0  0  0  0  0  0  0  0  0  0  0  0
   -2.3530    2.1803    0.0696 H   0  0  0  0  0  0  0  0  0  0  0  0
   -3.1670   -2.8285   -1.7033 H   0  0  0  0  0  0  0  0  0  0  0  0
   -3.5408   -4.9208   -2.9892 H   0  0  0  0  0  0  0  0  0  0  0  0
   -1.0682    1.7394   -1.8886 H   0  0  0  0  0  0  0  0  0  0  0  0
    0.6193    1.3208   -1.6654 H   0  0  0  0  0  0  0  0  0  0  0  0
   -0.0527   -2.3560   -2.1139 H   0  0  0  0  0  0  0  0  0  0  0  0
   -0.7779   -1.7572   -0.5950 H   0  0  0  0  0  0  0  0  0  0  0  0
   -1.3867   -5.2264   -7.1350 H   0  0  0  0  0  0  0  0  0  0  0  0
   -2.9926   -4.6350   -7.6309 H   0  0  0  0  0  0  0  0  0  0  0  0
    2.5594   -2.8746   -1.1862 H   0  0  0  0  0  0  0  0  0  0  0  0
    3.2730   -1.2649   -1.4301 H   0  0  0  0  0  0  0  0  0  0  0  0
    2.1550   -1.9332   -2.6387 H   0  0  0  0  0  0  0  0  0  0  0  0
   -2.3545    0.3684   -3.1151 H   0  0  0  0  0  0  0  0  0  0  0  0
   -2.6421   -0.5492   -1.6299 H   0  0  0  0  0  0  0  0  0  0  0  0
   -0.0826   -0.2516   -3.0240 H   0  0  0  0  0  0  0  0  0  0  0  0
  1  2  2  0  0  0  0
  1  3  1  0  0  0  0
  2  4  1  0  0  0  0
  3  7  2  0  0  0  0
  4  9  2  0  0  0  0
  5  6  1  0  0  0  0
  5 10  2  0  0  0  0
  6 11  2  0  0  0  0
  7  9  1  0  0  0  0
  7 13  1  0  0  0  0
  8 10  1  0  0  0  0
  8 12  2  0  0  0  0
  8 14  1  0  0  0  0
  9 15  1  0  0  0  0
 10 19  1  0  0  0  0
 11 12  1  0  0  0  0
 11 25  1  0  0  0  0
 12 26  1  0  0  0  0
 13 20  1  0  0  0  0
 13 23  2  0  0  0  0
 14 22  1  0  0  0  0
 14 24  2  0  0  0  0
 15 21  1  0  0  0  0
 16 20  1  0  0  0  0
 16 21  1  0  0  0  0
 17 25  1  0  0  0  0
 17 26  1  0  0  0  0
 18 20  1  0  0  0  0
 19 21  1  0  0  0  0
  1 27  1  0  0  0  0
  2 28  1  0  0  0  0
  3 29  1  0  0  0  0
  4 30  1  0  0  0  0
  5 31  1  0  0  0  0
  6 32  1  0  0  0  0
 15 33  1  0  0  0  0
 15 34  1  0  0  0  0
 16 35  1  0  0  0  0
 16 36  1  0  0  0  0
 17 37  1  0  0  0  0
 17 38  1  0  0  0  0
 18 39  1  0  0  0  0
 18 40  1  0  0  0  0
 18 41  1  0  0  0  0
 19 42  1  0  0  0  0
 19 43  1  0  0  0  0
 21 44  1  0  0  0  0
M  CHG  2  21   1  22  -1
M  END
$$$$
