AVX17384_1
  -OEChem-04011314533D

 44 46  0     1  0  0  0  0  0999 V2000
    4.5854   -6.1473    5.4165 C   0  0  0  0  0  0  0  0  0  0  0  0
    5.0073   -7.1735    4.5713 C   0  0  0  0  0  0  0  0  0  0  0  0
    3.7933   -5.1135    4.9170 C   0  0  0  0  0  0  0  0  0  0  0  0
    4.6373   -7.1659    3.2265 C   0  0  0  0  0  0  0  0  0  0  0  0
    3.3146   -7.2642    0.6170 C   0  0  0  0  0  0  0  0  0  0  0  0
    3.4232   -5.1059    3.5721 C   0  0  0  0  0  0  0  0  0  0  0  0
    2.9707   -6.8137   -0.6341 C   0  0  0  0  0  0  0  0  0  0  0  0
    3.8452   -6.1321    2.7269 C   0  0  0  0  0  0  0  0  0  0  0  0
    2.9659   -5.4110   -0.5141 C   0  0  0  0  0  0  0  0  0  0  0  0
    2.5939   -4.0082    3.0879 C   0  0  0  0  0  0  0  0  0  0  0  0
   -0.9995   -1.9910   -1.1141 C   0  0  0  0  0  0  0  0  0  0  0  0
   -0.2060   -0.7104   -0.8871 C   0  0  0  0  0  0  0  0  0  0  0  0
   -0.4985   -2.7109   -2.3633 C   0  0  0  0  0  0  0  0  0  0  0  0
    1.2892   -0.9946   -0.9058 C   0  0  0  0  0  0  0  0  0  0  0  0
    1.0185   -2.8920   -2.3305 C   0  0  1  0  0  0  0  0  0  0  0  0
    2.6750   -7.6251   -1.8267 C   0  0  0  0  0  0  0  0  0  0  0  0
    2.6581   -4.3976   -1.5770 C   0  0  0  0  0  0  0  0  0  0  0  0
    3.2816   -4.9977    0.7162 N   0  0  0  0  0  0  0  0  0  0  0  0
    3.4879   -6.1475    1.3806 N   0  0  0  0  0  0  0  0  0  0  0  0
    1.2146   -4.1682    3.1495 N   0  0  0  0  0  0  0  0  0  0  0  0
    3.1006   -2.9752    2.6218 O   0  0  0  0  0  0  0  0  0  0  0  0
    1.6760   -1.6405   -2.1184 O   0  0  0  0  0  0  0  0  0  0  0  0
    1.3630   -3.8631   -1.3466 O   0  0  0  0  0  0  0  0  0  0  0  0
    4.8734   -6.1528    6.4638 H   0  0  0  0  0  0  0  0  0  0  0  0
    5.6238   -7.9785    4.9606 H   0  0  0  0  0  0  0  0  0  0  0  0
    3.4705   -4.3199    5.5862 H   0  0  0  0  0  0  0  0  0  0  0  0
    4.9742   -7.9729    2.5799 H   0  0  0  0  0  0  0  0  0  0  0  0
    3.4463   -8.2625    1.0134 H   0  0  0  0  0  0  0  0  0  0  0  0
   -0.8945   -2.6475   -0.2418 H   0  0  0  0  0  0  0  0  0  0  0  0
   -2.0657   -1.7604   -1.2159 H   0  0  0  0  0  0  0  0  0  0  0  0
   -0.4474   -0.0020   -1.6892 H   0  0  0  0  0  0  0  0  0  0  0  0
   -0.4942   -0.2466    0.0620 H   0  0  0  0  0  0  0  0  0  0  0  0
   -1.0006   -3.6808   -2.4497 H   0  0  0  0  0  0  0  0  0  0  0  0
   -0.7680   -2.1089   -3.2398 H   0  0  0  0  0  0  0  0  0  0  0  0
    1.8456   -0.0541   -0.8396 H   0  0  0  0  0  0  0  0  0  0  0  0
    1.5876   -1.6109   -0.0499 H   0  0  0  0  0  0  0  0  0  0  0  0
    1.3467   -3.2760   -3.3026 H   0  0  0  0  0  0  0  0  0  0  0  0
    1.6010   -7.8719   -1.8876 H   0  0  0  0  0  0  0  0  0  0  0  0
    2.9502   -7.1070   -2.7628 H   0  0  0  0  0  0  0  0  0  0  0  0
    3.2355   -8.5773   -1.8331 H   0  0  0  0  0  0  0  0  0  0  0  0
    3.3888   -3.5817   -1.5637 H   0  0  0  0  0  0  0  0  0  0  0  0
    2.6854   -4.8575   -2.5707 H   0  0  0  0  0  0  0  0  0  0  0  0
    0.8302   -5.0292    3.5232 H   0  0  0  0  0  0  0  0  0  0  0  0
    0.5844   -3.4405    2.8280 H   0  0  0  0  0  0  0  0  0  0  0  0
  1  2  2  0  0  0  0
  1  3  1  0  0  0  0
  2  4  1  0  0  0  0
  3  6  2  0  0  0  0
  4  8  2  0  0  0  0
  5  7  2  0  0  0  0
  5 19  1  0  0  0  0
  6  8  1  0  0  0  0
  6 10  1  0  0  0  0
  7  9  1  0  0  0  0
  7 16  1  0  0  0  0
  8 19  1  0  0  0  0
  9 17  1  0  0  0  0
  9 18  2  0  0  0  0
 10 20  1  0  0  0  0
 10 21  2  0  0  0  0
 11 12  1  0  0  0  0
 11 13  1  0  0  0  0
 12 14  1  0  0  0  0
 13 15  1  0  0  0  0
 14 22  1  0  0  0  0
 15 22  1  0  0  0  0
 15 23  1  0  0  0  0
 17 23  1  0  0  0  0
 18 19  1  0  0  0  0
  1 24  1  0  0  0  0
  2 25  1  0  0  0  0
  3 26  1  0  0  0  0
  4 27  1  0  0  0  0
  5 28  1  0  0  0  0
 11 29  1  0  0  0  0
 11 30  1  0  0  0  0
 12 31  1  0  0  0  0
 12 32  1  0  0  0  0
 13 33  1  0  0  0  0
 13 34  1  0  0  0  0
 14 35  1  0  0  0  0
 14 36  1  0  0  0  0
 15 37  1  0  0  0  0
 16 38  1  0  0  0  0
 16 39  1  0  0  0  0
 16 40  1  0  0  0  0
 17 41  1  0  0  0  0
 17 42  1  0  0  0  0
 20 43  1  0  0  0  0
 20 44  1  0  0  0  0
M  END
$$$$
