@<TRIPOS>MOLECULE
AVX17629_1
   63    66     0     0     0
SMALL
NO_CHARGES

@<TRIPOS>ATOM
      1 C1         -8.9801   -3.7813    4.4486 C.ar      1 MOL         0.0000
      2 C2         -1.5935   -1.0231   -2.6175 C.ar      1 MOL         0.0000
      3 C3         -9.0165   -4.2226    3.1260 C.ar      1 MOL         0.0000
      4 C4         -8.2951   -2.6108    4.7748 C.ar      1 MOL         0.0000
      5 C5         -2.0866   -2.2934   -2.9153 C.ar      1 MOL         0.0000
      6 C6         -1.7978   -0.4748   -1.3513 C.ar      1 MOL         0.0000
      7 C7         -8.3677   -3.4935    2.1294 C.ar      1 MOL         0.0000
      8 C8         -7.6463   -1.8817    3.7782 C.ar      1 MOL         0.0000
      9 C9         -2.7841   -3.0155   -1.9469 C.ar      1 MOL         0.0000
     10 C10        -2.4953   -1.1968   -0.3829 C.ar      1 MOL         0.0000
     11 C11        -2.4284  -10.0503    1.2154 C.ar      1 MOL         0.0000
     12 C12        -3.0500  -11.1092    1.8815 C.ar      1 MOL         0.0000
     13 C13        -2.8146   -8.5739    3.1126 C.ar      1 MOL         0.0000
     14 C14        -7.6826   -2.3230    2.4555 C.ar      1 MOL         0.0000
     15 C15        -2.9885   -2.4672   -0.6807 C.ar      1 MOL         0.0000
     16 C16        -2.3113   -8.7899    1.8274 C.ar      1 MOL         0.0000
     17 C17        -3.5384  -10.8697    3.1495 C.ar      1 MOL         0.0000
     18 C18        -3.4238   -9.6360    3.7486 C.ar      1 MOL         0.0000
     19 C19        -2.7071   -7.2794    3.7693 C.2       1 MOL         0.0000
     20 C20        -5.2410   -2.9662    0.3170 C.2       1 MOL         0.0000
     21 C21        -2.5349   -5.3703    0.8589 C.2       1 MOL         0.0000
     22 C22        -4.4402  -10.9721    5.1137 C.3       1 MOL         0.0000
     23 C23        -5.4039   -5.0985    4.9797 C.3       1 MOL         0.0000
     24 C24        -6.9839   -1.5379    1.3834 C.3       1 MOL         0.0000
     25 C25        -1.6379   -7.6890    1.0731 C.3       1 MOL         0.0000
     26 C26        -3.9646   -5.4928    4.7256 C.3       1 MOL         0.0000
     27 C27        -3.7442   -3.2487    0.3688 C.3       1 MOL         0.0000
     28 N1         -5.6154   -1.9665    1.2040 N.am      1 MOL         0.0000
     29 N2         -2.5783   -6.7308    0.5534 N.am      1 MOL         0.0000
     30 N3         -3.5593   -4.6733    0.2231 N.am      1 MOL         0.0000
     31 O1         -1.6377   -6.7094    4.0199 O.2       1 MOL         0.0000
     32 O2         -6.0129   -3.5928   -0.4063 O.2       1 MOL         0.0000
     33 O3         -1.6974   -4.8518    1.5961 O.2       1 MOL         0.0000
     34 O4         -4.1696  -11.7745    3.9462 O.3       1 MOL         0.0000
     35 O5         -3.9691   -9.6140    4.9952 O.3       1 MOL         0.0000
     36 O6         -3.9382   -6.7680    4.0753 O.3       1 MOL         0.0000
     37 H1         -9.4865   -4.3484    5.2243 H         1 MOL         0.0000
     38 H2         -1.0492   -0.4616   -3.3712 H         1 MOL         0.0000
     39 H3         -9.5507   -5.1334    2.8717 H         1 MOL         0.0000
     40 H4         -8.2675   -2.2663    5.8043 H         1 MOL         0.0000
     41 H5         -1.9267   -2.7210   -3.9008 H         1 MOL         0.0000
     42 H6         -1.4131    0.5137   -1.1187 H         1 MOL         0.0000
     43 H7         -8.4012   -3.8450    1.1015 H         1 MOL         0.0000
     44 H8         -7.1150   -0.9709    4.0417 H         1 MOL         0.0000
     45 H9         -3.1649   -4.0045   -2.1879 H         1 MOL         0.0000
     46 H10        -2.6498   -0.7616    0.6009 H         1 MOL         0.0000
     47 H11        -2.0339  -10.2108    0.2149 H         1 MOL         0.0000
     48 H12        -3.1418  -12.0827    1.4134 H         1 MOL         0.0000
     49 H13        -5.5232  -10.9544    5.2842 H         1 MOL         0.0000
     50 H14        -3.9552  -11.4374    5.9793 H         1 MOL         0.0000
     51 H15        -5.9594   -5.0230    4.0408 H         1 MOL         0.0000
     52 H16        -5.8974   -5.8333    5.6243 H         1 MOL         0.0000
     53 H17        -5.4542   -4.1354    5.4984 H         1 MOL         0.0000
     54 H18        -7.5008   -1.6495    0.4240 H         1 MOL         0.0000
     55 H19        -6.9712   -0.4695    1.6236 H         1 MOL         0.0000
     56 H20        -0.9321   -7.1471    1.7161 H         1 MOL         0.0000
     57 H21        -1.0622   -8.0800    0.2246 H         1 MOL         0.0000
     58 H22        -3.4147   -5.5666    5.6685 H         1 MOL         0.0000
     59 H23        -3.4733   -4.7581    4.0807 H         1 MOL         0.0000
     60 H24        -3.3712   -3.0057    1.3711 H         1 MOL         0.0000
     61 H25        -4.9040   -1.5049    1.7629 H         1 MOL         0.0000
     62 H26        -3.3120   -7.0628   -0.0687 H         1 MOL         0.0000
     63 H27        -4.1773   -5.1777   -0.4049 H         1 MOL         0.0000
@<TRIPOS>BOND
     1    1    3 ar
     2    1    4 ar
     3    2    5 ar
     4    2    6 ar
     5    3    7 ar
     6    4    8 ar
     7    5    9 ar
     8    6   10 ar
     9    7   14 ar
    10    8   14 ar
    11    9   15 ar
    12   10   15 ar
    13   11   12 ar
    14   11   16 ar
    15   12   17 ar
    16   13   16 ar
    17   13   18 ar
    18   13   19 1
    19   14   24 1
    20   15   27 1
    21   16   25 1
    22   17   18 ar
    23   17   34 1
    24   18   35 1
    25   19   31 2
    26   19   36 1
    27   20   27 1
    28   20   28 am
    29   20   32 2
    30   21   29 am
    31   21   30 am
    32   21   33 2
    33   22   34 1
    34   22   35 1
    35   23   26 1
    36   24   28 1
    37   25   29 1
    38   26   36 1
    39   27   30 1
    40    1   37 1
    41    2   38 1
    42    3   39 1
    43    4   40 1
    44    5   41 1
    45    6   42 1
    46    7   43 1
    47    8   44 1
    48    9   45 1
    49   10   46 1
    50   11   47 1
    51   12   48 1
    52   22   49 1
    53   22   50 1
    54   23   51 1
    55   23   52 1
    56   23   53 1
    57   24   54 1
    58   24   55 1
    59   25   56 1
    60   25   57 1
    61   26   58 1
    62   26   59 1
    63   27   60 1
    64   28   61 1
    65   29   62 1
    66   30   63 1
