AVX17375_1
  -OEChem-04011314533D

 38 41  0     1  0  0  0  0  0999 V2000
    2.3687    1.2139   -0.5172 C   0  0  0  0  0  0  0  0  0  0  0  0
    2.3964   -0.0723   -1.0778 C   0  0  0  0  0  0  0  0  0  0  0  0
    1.2530    1.6549    0.1973 C   0  0  0  0  0  0  0  0  0  0  0  0
    1.3094   -0.9362   -0.9302 C   0  0  0  0  0  0  0  0  0  0  0  0
   -3.0800   -3.0396    2.0179 C   0  0  0  0  0  0  0  0  0  0  0  0
   -4.1246   -3.9650    2.0795 C   0  0  0  0  0  0  0  0  0  0  0  0
   -1.8452   -4.4711    0.4836 C   0  0  0  0  0  0  0  0  0  0  0  0
    0.1745    0.7958    0.3290 C   0  0  0  0  0  0  0  0  0  0  0  0
    0.2036   -0.4899   -0.2235 C   0  0  0  0  0  0  0  0  0  0  0  0
   -1.9469   -3.2912    1.2245 C   0  0  0  0  0  0  0  0  0  0  0  0
   -3.9996   -5.1221    1.3385 C   0  0  0  0  0  0  0  0  0  0  0  0
   -2.8905   -5.3684    0.5618 C   0  0  0  0  0  0  0  0  0  0  0  0
   -0.6704   -4.7576   -0.3552 C   0  0  0  0  0  0  0  0  0  0  0  0
   -1.1042    1.0375    1.0713 C   0  0  0  0  0  0  0  0  0  0  0  0
   -4.2497   -7.0410    0.3703 C   0  0  0  0  0  0  0  0  0  0  0  0
   -1.0641   -1.2425    0.0794 C   0  0  2  0  0  0  0  0  0  0  0  0
   -1.9958   -0.0886    0.5171 C   0  0  2  0  0  0  0  0  0  0  0  0
   -0.8479   -2.2635    1.1909 C   0  0  0  0  0  0  0  0  0  0  0  0
   -0.6772   -4.3721   -1.5841 O   0  5  0  0  0  0  0  0  0  0  0  0
    0.3260   -5.3848    0.1669 O   0  0  0  0  0  0  0  0  0  0  0  0
   -4.9101   -6.1314    1.2740 O   0  0  0  0  0  0  0  0  0  0  0  0
   -2.9677   -6.5627   -0.0860 O   0  0  0  0  0  0  0  0  0  0  0  0
   -2.6936    0.3909   -0.6363 O   0  0  0  0  0  0  0  0  0  0  0  0
    3.2263    1.8704   -0.6377 H   0  0  0  0  0  0  0  0  0  0  0  0
    3.2749   -0.3995   -1.6274 H   0  0  0  0  0  0  0  0  0  0  0  0
    1.2373    2.6463    0.6368 H   0  0  0  0  0  0  0  0  0  0  0  0
    1.3364   -1.9325   -1.3584 H   0  0  0  0  0  0  0  0  0  0  0  0
   -3.1515   -2.1184    2.5913 H   0  0  0  0  0  0  0  0  0  0  0  0
   -5.0000   -3.7749    2.6900 H   0  0  0  0  0  0  0  0  0  0  0  0
   -0.9283    0.9100    2.1441 H   0  0  0  0  0  0  0  0  0  0  0  0
   -1.5092    2.0318    0.8615 H   0  0  0  0  0  0  0  0  0  0  0  0
   -4.1047   -7.9997    0.8814 H   0  0  0  0  0  0  0  0  0  0  0  0
   -4.8951   -7.2004   -0.5011 H   0  0  0  0  0  0  0  0  0  0  0  0
   -1.4383   -1.7325   -0.8271 H   0  0  0  0  0  0  0  0  0  0  0  0
   -2.7549   -0.4015    1.2413 H   0  0  0  0  0  0  0  0  0  0  0  0
   -0.7909   -1.7485    2.1562 H   0  0  0  0  0  0  0  0  0  0  0  0
    0.1196   -2.7585    1.0514 H   0  0  0  0  0  0  0  0  0  0  0  0
   -3.2384   -0.3459   -0.9491 H   0  0  0  0  0  0  0  0  0  0  0  0
  1  2  1  0  0  0  0
  1  3  2  0  0  0  0
  2  4  2  0  0  0  0
  3  8  1  0  0  0  0
  4  9  1  0  0  0  0
  5  6  2  0  0  0  0
  5 10  1  0  0  0  0
  6 11  1  0  0  0  0
  7 10  2  0  0  0  0
  7 12  1  0  0  0  0
  7 13  1  0  0  0  0
  8  9  2  0  0  0  0
  8 14  1  0  0  0  0
  9 16  1  0  0  0  0
 10 18  1  0  0  0  0
 11 12  2  0  0  0  0
 11 21  1  0  0  0  0
 12 22  1  0  0  0  0
 13 19  1  0  0  0  0
 13 20  2  0  0  0  0
 14 17  1  0  0  0  0
 15 21  1  0  0  0  0
 15 22  1  0  0  0  0
 16 17  1  0  0  0  0
 16 18  1  0  0  0  0
 17 23  1  0  0  0  0
  1 24  1  0  0  0  0
  2 25  1  0  0  0  0
  3 26  1  0  0  0  0
  4 27  1  0  0  0  0
  5 28  1  0  0  0  0
  6 29  1  0  0  0  0
 14 30  1  0  0  0  0
 14 31  1  0  0  0  0
 15 32  1  0  0  0  0
 15 33  1  0  0  0  0
 16 34  1  0  0  0  0
 17 35  1  0  0  0  0
 18 36  1  0  0  0  0
 18 37  1  0  0  0  0
 23 38  1  0  0  0  0
M  CHG  1  19  -1
M  END
$$$$
