@<TRIPOS>MOLECULE
AVX17715_0
   57    60     0     0     0
SMALL
NO_CHARGES

@<TRIPOS>ATOM
      1 C1         -0.0052    0.8633   -5.0902 C.ar      1 MOL         0.0000
      2 C2         -0.6237    0.8519   -3.8401 C.ar      1 MOL         0.0000
      3 C3          1.1773    0.1509   -5.2899 C.ar      1 MOL         0.0000
      4 C4         -0.0596    0.1283   -2.7895 C.ar      1 MOL         0.0000
      5 C5          3.0559   -5.8516   -1.4483 C.ar      1 MOL         0.0000
      6 C6          6.4796   -1.1386   -2.1507 C.ar      1 MOL         0.0000
      7 C7          5.9844   -3.2859   -3.1409 C.ar      1 MOL         0.0000
      8 C8          2.9429   -7.2333   -1.6199 C.ar      1 MOL         0.0000
      9 C9          6.9570   -1.7766   -1.0058 C.ar      1 MOL         0.0000
     10 C10         6.4618   -3.9240   -1.9961 C.ar      1 MOL         0.0000
     11 C11         1.7414   -0.5727   -4.2393 C.ar      1 MOL         0.0000
     12 C12         0.7188   -5.6998   -0.7830 C.ar      1 MOL         0.0000
     13 C13         5.9933   -1.8933   -3.2182 C.ar      1 MOL         0.0000
     14 C14         1.1230   -0.5841   -2.9891 C.ar      1 MOL         0.0000
     15 C15         1.9503   -5.0892   -1.0321 C.ar      1 MOL         0.0000
     16 C16         1.7159   -7.8116   -1.3673 C.ar      1 MOL         0.0000
     17 C17         0.6337   -7.0655   -0.9599 C.ar      1 MOL         0.0000
     18 C18         6.9481   -3.1693   -0.9285 C.ar      1 MOL         0.0000
     19 C19         2.9771   -1.3071   -4.4750 C.2       1 MOL         0.0000
     20 C20        -0.4532   -4.9245   -0.3456 C.2       1 MOL         0.0000
     21 C21         0.0280   -9.1382   -1.0970 C.3       1 MOL         0.0000
     22 C22         7.3770   -5.2179    0.2007 C.3       1 MOL         0.0000
     23 C23         5.4800   -1.2067   -4.4508 C.3       1 MOL         0.0000
     24 C24         1.7082   -1.3533   -1.8416 C.3       1 MOL         0.0000
     25 C25         2.1210   -3.6138   -0.8625 C.3       1 MOL         0.0000
     26 N1          4.1745   -0.6232   -4.2410 N.am      1 MOL         0.0000
     27 N2          1.5021   -2.8210   -1.9587 N.4       1 MOL         0.0000
     28 O1         -0.6502   -4.7573    0.9161 O.co2     1 MOL         0.0000
     29 O2          2.9435   -2.4797   -4.8850 O.2       1 MOL         0.0000
     30 O3         -1.2438   -4.4388   -1.2389 O.co2     1 MOL         0.0000
     31 O4          1.4188   -9.1349   -1.4789 O.3       1 MOL         0.0000
     32 O5         -0.4765   -7.8282   -0.7658 O.3       1 MOL         0.0000
     33 O6          7.4151   -3.7916    0.1882 O.3       1 MOL         0.0000
     34 H1         -0.4443    1.4265   -5.9088 H         1 MOL         0.0000
     35 H2         -1.5443    1.4070   -3.6851 H         1 MOL         0.0000
     36 H3          1.6501    0.1686   -6.2686 H         1 MOL         0.0000
     37 H4         -0.5497    0.1257   -1.8195 H         1 MOL         0.0000
     38 H5          4.0113   -5.3686   -1.6397 H         1 MOL         0.0000
     39 H6          6.4902   -0.0532   -2.2022 H         1 MOL         0.0000
     40 H7          5.6072   -3.8821   -3.9679 H         1 MOL         0.0000
     41 H8          3.7929   -7.8248   -1.9405 H         1 MOL         0.0000
     42 H9          7.3349   -1.1831   -0.1775 H         1 MOL         0.0000
     43 H10         6.4525   -5.0090   -1.9421 H         1 MOL         0.0000
     44 H11        -0.5628   -9.5420   -1.9272 H         1 MOL         0.0000
     45 H12        -0.0953   -9.7922   -0.2261 H         1 MOL         0.0000
     46 H13         7.7782   -5.5856    1.1483 H         1 MOL         0.0000
     47 H14         7.9678   -5.6063   -0.6327 H         1 MOL         0.0000
     48 H15         6.3405   -5.5467    0.0944 H         1 MOL         0.0000
     49 H16         6.1616   -0.4064   -4.7592 H         1 MOL         0.0000
     50 H17         5.4025   -1.9083   -5.2880 H         1 MOL         0.0000
     51 H18         2.7890   -1.1924   -1.7672 H         1 MOL         0.0000
     52 H19         1.2591   -1.0475   -0.8905 H         1 MOL         0.0000
     53 H20         1.6646   -3.2617    0.0711 H         1 MOL         0.0000
     54 H21         3.1815   -3.3332   -0.8369 H         1 MOL         0.0000
     55 H22         4.1441    0.3535   -3.9672 H         1 MOL         0.0000
     56 H23         0.4927   -3.0189   -1.9883 H         1 MOL         0.0000
     57 H24         1.8777   -3.1436   -2.8608 H         1 MOL         0.0000
@<TRIPOS>BOND
     1    1    2 ar
     2    1    3 ar
     3    2    4 ar
     4    3   11 ar
     5    4   14 ar
     6    5    8 ar
     7    5   15 ar
     8    6    9 ar
     9    6   13 ar
    10    7   10 ar
    11    7   13 ar
    12    8   16 ar
    13    9   18 ar
    14   10   18 ar
    15   11   14 ar
    16   11   19 1
    17   12   15 ar
    18   12   17 ar
    19   12   20 1
    20   13   23 1
    21   14   24 1
    22   15   25 1
    23   16   17 ar
    24   16   31 1
    25   17   32 1
    26   18   33 1
    27   19   26 am
    28   19   29 2
    29   20   28 1
    30   20   30 2
    31   21   31 1
    32   21   32 1
    33   22   33 1
    34   23   26 1
    35   24   27 1
    36   25   27 1
    37    1   34 1
    38    2   35 1
    39    3   36 1
    40    4   37 1
    41    5   38 1
    42    6   39 1
    43    7   40 1
    44    8   41 1
    45    9   42 1
    46   10   43 1
    47   21   44 1
    48   21   45 1
    49   22   46 1
    50   22   47 1
    51   22   48 1
    52   23   49 1
    53   23   50 1
    54   24   51 1
    55   24   52 1
    56   25   53 1
    57   25   54 1
    58   26   55 1
    59   27   56 1
    60   27   57 1
