AVX101121_0
  -OEChem-04011314513D

 67 70  0     1  0  0  0  0  0999 V2000
   -0.4966   -2.0341    0.4940 C   0  0  0  0  0  0  0  0  0  0  0  0
    0.3500   -1.0275    0.0392 C   0  0  0  0  0  0  0  0  0  0  0  0
    6.5379   -4.3608    4.4293 C   0  0  0  0  0  0  0  0  0  0  0  0
   -0.0479   -3.3542    0.5448 C   0  0  0  0  0  0  0  0  0  0  0  0
    1.6484   -1.3369   -0.3665 C   0  0  0  0  0  0  0  0  0  0  0  0
    6.1331   -4.1304    3.1145 C   0  0  0  0  0  0  0  0  0  0  0  0
    6.2062   -9.4982    0.8341 C   0  0  0  0  0  0  0  0  0  0  0  0
    5.8591   -8.0799    2.7589 C   0  0  0  0  0  0  0  0  0  0  0  0
    7.8931   -4.3257    4.7581 C   0  0  0  0  0  0  0  0  0  0  0  0
    7.5667   -9.5705    1.1326 C   0  0  0  0  0  0  0  0  0  0  0  0
    7.2197   -8.1522    3.0575 C   0  0  0  0  0  0  0  0  0  0  0  0
    1.7243   -5.0072    0.1848 C   0  0  0  0  0  0  0  0  0  0  0  0
    3.4207   -2.9899   -0.7267 C   0  0  0  0  0  0  0  0  0  0  0  0
    1.2560   -3.6839    0.1403 C   0  0  0  0  0  0  0  0  0  0  0  0
    2.1168   -2.6602   -0.3222 C   0  0  0  0  0  0  0  0  0  0  0  0
    3.0228   -5.3167   -0.2210 C   0  0  0  0  0  0  0  0  0  0  0  0
    8.4385   -3.8299    2.4573 C   0  0  0  0  0  0  0  0  0  0  0  0
    5.3523   -8.7529    1.6472 C   0  0  0  0  0  0  0  0  0  0  0  0
    7.0833   -3.8649    2.1285 C   0  0  0  0  0  0  0  0  0  0  0  0
    3.8693   -4.3100   -0.6758 C   0  0  0  0  0  0  0  0  0  0  0  0
    8.0735   -8.8975    2.2443 C   0  0  0  0  0  0  0  0  0  0  0  0
    8.8433   -4.0603    3.7721 C   0  0  0  0  0  0  0  0  0  0  0  0
    3.4670   -6.7028   -0.1589 C   0  0  0  0  0  0  0  0  0  0  0  0
    9.4485   -3.5528    1.4166 C   0  0  0  0  0  0  0  0  0  0  0  0
    7.3836   -5.7091   -0.3996 C   0  0  0  0  0  0  0  0  0  0  0  0
    9.8522   -8.2571    3.6873 C   0  0  0  0  0  0  0  0  0  0  0  0
   10.4814   -4.2797    5.4822 C   0  0  0  0  0  0  0  0  0  0  0  0
    3.8877   -8.6755    1.3263 C   0  0  0  0  0  0  0  0  0  0  0  0
    6.6185   -3.6221    0.7228 C   0  0  0  0  0  0  0  0  0  0  0  0
    5.2643   -4.6147   -1.1160 C   0  0  0  0  0  0  0  0  0  0  0  0
    3.4551   -7.3154    1.0983 N   0  0  0  0  0  0  0  0  0  0  0  0
    6.1926   -4.8833    0.0153 N   0  3  1  0  0  0  0  0  0  0  0  0
    9.9504   -4.5425    0.7675 O   0  5  0  0  0  0  0  0  0  0  0  0
    3.8539   -7.2857   -1.1857 O   0  0  0  0  0  0  0  0  0  0  0  0
    9.7884   -2.3321    1.1987 O   0  0  0  0  0  0  0  0  0  0  0  0
    9.4010   -8.9693    2.5362 O   0  0  0  0  0  0  0  0  0  0  0  0
   10.1623   -4.0327    4.1146 O   0  0  0  0  0  0  0  0  0  0  0  0
   -1.5072   -1.7928    0.8103 H   0  0  0  0  0  0  0  0  0  0  0  0
    0.0004    0.0001    0.0009 H   0  0  0  0  0  0  0  0  0  0  0  0
    5.7979   -4.5663    5.1971 H   0  0  0  0  0  0  0  0  0  0  0  0
   -0.7270   -4.1248    0.9039 H   0  0  0  0  0  0  0  0  0  0  0  0
    2.2925   -0.5337   -0.7185 H   0  0  0  0  0  0  0  0  0  0  0  0
    5.0751   -4.1597    2.8679 H   0  0  0  0  0  0  0  0  0  0  0  0
    5.8200  -10.0256   -0.0340 H   0  0  0  0  0  0  0  0  0  0  0  0
    5.2012   -7.4967    3.3980 H   0  0  0  0  0  0  0  0  0  0  0  0
    8.2010   -4.5066    5.7846 H   0  0  0  0  0  0  0  0  0  0  0  0
    8.2269  -10.1531    0.4954 H   0  0  0  0  0  0  0  0  0  0  0  0
    7.6082   -7.6261    3.9249 H   0  0  0  0  0  0  0  0  0  0  0  0
    1.0697   -5.8020    0.5395 H   0  0  0  0  0  0  0  0  0  0  0  0
    4.0924   -2.2111   -1.0842 H   0  0  0  0  0  0  0  0  0  0  0  0
    7.9458   -5.1361   -1.1393 H   0  0  0  0  0  0  0  0  0  0  0  0
    7.9857   -5.8982    0.4911 H   0  0  0  0  0  0  0  0  0  0  0  0
    7.0107   -6.6420   -0.8267 H   0  0  0  0  0  0  0  0  0  0  0  0
   10.9293   -8.3986    3.8052 H   0  0  0  0  0  0  0  0  0  0  0  0
    9.3266   -8.6237    4.5727 H   0  0  0  0  0  0  0  0  0  0  0  0
    9.6391   -7.1939    3.5536 H   0  0  0  0  0  0  0  0  0  0  0  0
   11.5642   -4.2287    5.6195 H   0  0  0  0  0  0  0  0  0  0  0  0
   10.1129   -5.2674    5.7706 H   0  0  0  0  0  0  0  0  0  0  0  0
   10.0015   -3.5187    6.1022 H   0  0  0  0  0  0  0  0  0  0  0  0
    3.6581   -9.2576    0.4272 H   0  0  0  0  0  0  0  0  0  0  0  0
    3.2843   -9.0863    2.1426 H   0  0  0  0  0  0  0  0  0  0  0  0
    5.7587   -2.9440    0.7017 H   0  0  0  0  0  0  0  0  0  0  0  0
    7.4122   -3.1735    0.1157 H   0  0  0  0  0  0  0  0  0  0  0  0
    5.2975   -5.5018   -1.7615 H   0  0  0  0  0  0  0  0  0  0  0  0
    5.6983   -3.7803   -1.6818 H   0  0  0  0  0  0  0  0  0  0  0  0
    3.1891   -6.7729    1.9136 H   0  0  0  0  0  0  0  0  0  0  0  0
    5.6796   -5.4466    0.7131 H   0  0  0  0  0  0  0  0  0  0  0  0
  1  2  2  0  0  0  0
  1  4  1  0  0  0  0
  2  5  1  0  0  0  0
  3  6  1  0  0  0  0
  3  9  2  0  0  0  0
  4 14  2  0  0  0  0
  5 15  2  0  0  0  0
  6 19  2  0  0  0  0
  7 10  1  0  0  0  0
  7 18  2  0  0  0  0
  8 11  2  0  0  0  0
  8 18  1  0  0  0  0
  9 22  1  0  0  0  0
 10 21  2  0  0  0  0
 11 21  1  0  0  0  0
 12 14  1  0  0  0  0
 12 16  2  0  0  0  0
 13 15  1  0  0  0  0
 13 20  2  0  0  0  0
 14 15  1  0  0  0  0
 16 20  1  0  0  0  0
 16 23  1  0  0  0  0
 17 19  1  0  0  0  0
 17 22  2  0  0  0  0
 17 24  1  0  0  0  0
 18 28  1  0  0  0  0
 19 29  1  0  0  0  0
 20 30  1  0  0  0  0
 21 36  1  0  0  0  0
 22 37  1  0  0  0  0
 23 31  1  0  0  0  0
 23 34  2  0  0  0  0
 24 33  1  0  0  0  0
 24 35  2  0  0  0  0
 25 32  1  0  0  0  0
 26 36  1  0  0  0  0
 27 37  1  0  0  0  0
 28 31  1  0  0  0  0
 29 32  1  0  0  0  0
 30 32  1  0  0  0  0
  1 38  1  0  0  0  0
  2 39  1  0  0  0  0
  3 40  1  0  0  0  0
  4 41  1  0  0  0  0
  5 42  1  0  0  0  0
  6 43  1  0  0  0  0
  7 44  1  0  0  0  0
  8 45  1  0  0  0  0
  9 46  1  0  0  0  0
 10 47  1  0  0  0  0
 11 48  1  0  0  0  0
 12 49  1  0  0  0  0
 13 50  1  0  0  0  0
 25 51  1  0  0  0  0
 25 52  1  0  0  0  0
 25 53  1  0  0  0  0
 26 54  1  0  0  0  0
 26 55  1  0  0  0  0
 26 56  1  0  0  0  0
 27 57  1  0  0  0  0
 27 58  1  0  0  0  0
 27 59  1  0  0  0  0
 28 60  1  0  0  0  0
 28 61  1  0  0  0  0
 29 62  1  0  0  0  0
 29 63  1  0  0  0  0
 30 64  1  0  0  0  0
 30 65  1  0  0  0  0
 31 66  1  0  0  0  0
 32 67  1  0  0  0  0
M  CHG  2  32   1  33  -1
M  END
$$$$
