@<TRIPOS>MOLECULE
AVX17258_0
   32    34     0     0     0
SMALL
NO_CHARGES

@<TRIPOS>ATOM
      1 C1          2.2416   -0.0541   -1.7786 C.ar      1 MOL         0.0000
      2 C2          0.9138    0.3216   -2.0475 C.ar      1 MOL         0.0000
      3 C3         -2.7164    4.3977    0.2746 C.ar      1 MOL         0.0000
      4 C4         -2.2134    5.0032    1.4260 C.ar      1 MOL         0.0000
      5 C5          3.2258    0.9116   -1.5535 C.ar      1 MOL         0.0000
      6 C6         -1.9254    4.3130   -0.8713 C.ar      1 MOL         0.0000
      7 C7          0.5480    1.6689   -2.0956 C.ar      1 MOL         0.0000
      8 C8         -0.1286    5.4397    0.2858 C.ar      1 MOL         0.0000
      9 C9         -0.9195    5.5243    1.4317 C.ar      1 MOL         0.0000
     10 C10         2.8542    2.2424   -1.6034 C.ar      1 MOL         0.0000
     11 C11        -0.6316    4.8341   -0.8656 C.ar      1 MOL         0.0000
     12 C12         1.5361    2.6108   -1.8702 C.ar      1 MOL         0.0000
     13 C13         2.6810    4.6003   -1.5896 C.2       1 MOL         0.0000
     14 C14        -0.3885    6.1636    2.6463 C.2       1 MOL         0.0000
     15 C15         3.6912    3.4648   -1.4035 C.3       1 MOL         0.0000
     16 C16         0.2198    4.7433   -2.0990 C.3       1 MOL         0.0000
     17 N1          1.4392    4.0084   -1.8607 N.am      1 MOL         0.0000
     18 O1          0.8094    6.6362    2.6248 O.co2     1 MOL         0.0000
     19 O2          2.9508    5.7895   -1.5074 O.2       1 MOL         0.0000
     20 O3         -1.1388    6.2292    3.6910 O.co2     1 MOL         0.0000
     21 H1          2.5035   -1.1084   -1.7456 H         1 MOL         0.0000
     22 H2          0.1651   -0.4471   -2.2197 H         1 MOL         0.0000
     23 H3         -3.7238    3.9919    0.2706 H         1 MOL         0.0000
     24 H4         -2.8380    5.0636    2.3137 H         1 MOL         0.0000
     25 H5          4.2496    0.6202   -1.3467 H         1 MOL         0.0000
     26 H6         -2.3255    3.8394   -1.7638 H         1 MOL         0.0000
     27 H7         -0.4783    1.9498   -2.3030 H         1 MOL         0.0000
     28 H8          0.8805    5.8454    0.2887 H         1 MOL         0.0000
     29 H9          4.1050    3.5056   -0.3927 H         1 MOL         0.0000
     30 H10         4.4719    3.5429   -2.1646 H         1 MOL         0.0000
     31 H11        -0.3237    4.2419   -2.9072 H         1 MOL         0.0000
     32 H12         0.4946    5.7396   -2.4610 H         1 MOL         0.0000
@<TRIPOS>BOND
     1    1    2 ar
     2    1    5 ar
     3    2    7 ar
     4    3    4 ar
     5    3    6 ar
     6    4    9 ar
     7    5   10 ar
     8    6   11 ar
     9    7   12 ar
    10    8    9 ar
    11    8   11 ar
    12    9   14 1
    13   10   12 ar
    14   10   15 1
    15   11   16 1
    16   12   17 1
    17   13   15 1
    18   13   17 am
    19   13   19 2
    20   14   18 1
    21   14   20 2
    22   16   17 1
    23    1   21 1
    24    2   22 1
    25    3   23 1
    26    4   24 1
    27    5   25 1
    28    6   26 1
    29    7   27 1
    30    8   28 1
    31   15   29 1
    32   15   30 1
    33   16   31 1
    34   16   32 1
