AVX101139_1
  -OEChem-04011314513D

 57 59  0     1  0  0  0  0  0999 V2000
    8.1437   -0.1650   -2.7701 C   0  0  0  0  0  0  0  0  0  0  0  0
    6.9748   -0.6162   -3.3830 C   0  0  0  0  0  0  0  0  0  0  0  0
    8.0921    0.3847   -1.4891 C   0  0  0  0  0  0  0  0  0  0  0  0
    5.7543   -0.5178   -2.7150 C   0  0  0  0  0  0  0  0  0  0  0  0
    6.8715    0.4831   -0.8211 C   0  0  0  0  0  0  0  0  0  0  0  0
    3.1672    4.7912   -0.2976 C   0  0  0  0  0  0  0  0  0  0  0  0
    2.9296    6.0378   -0.8766 C   0  0  0  0  0  0  0  0  0  0  0  0
    4.7667    4.2882   -2.0370 C   0  0  0  0  0  0  0  0  0  0  0  0
    5.7026    0.0319   -1.4340 C   0  0  0  0  0  0  0  0  0  0  0  0
    4.0859    3.9165   -0.8778 C   0  0  0  0  0  0  0  0  0  0  0  0
    3.6104    6.4095   -2.0358 C   0  0  0  0  0  0  0  0  0  0  0  0
    4.5291    5.5348   -2.6161 C   0  0  0  0  0  0  0  0  0  0  0  0
    5.7383    3.3641   -2.6554 C   0  0  0  0  0  0  0  0  0  0  0  0
    5.4920    6.0784   -6.0983 C   0  0  0  0  0  0  0  0  0  0  0  0
    1.7037    1.3224   -3.2188 C   0  0  0  0  0  0  0  0  0  0  0  0
    0.5873    0.6856   -4.0196 C   0  0  0  0  0  0  0  0  0  0  0  0
    0.0426    0.5394   -1.7591 C   0  0  0  0  0  0  0  0  0  0  0  0
    1.5537    0.6312   -1.8811 C   0  0  2  0  0  0  0  0  0  0  0  0
    2.4146    8.4627   -1.9340 C   0  0  0  0  0  0  0  0  0  0  0  0
    4.3901    0.1383   -0.7151 C   0  0  0  0  0  0  0  0  0  0  0  0
    4.3210    2.5824   -0.2327 C   0  0  0  0  0  0  0  0  0  0  0  0
    4.5760    5.5775   -4.9934 C   0  0  0  0  0  0  0  0  0  0  0  0
    2.2175    1.3584   -0.7275 C   0  0  0  0  0  0  0  0  0  0  0  0
    3.6737    1.4411   -0.9808 N   0  3  2  0  0  0  0  0  0  0  0  0
    6.9679    3.4266   -2.2853 O   0  5  0  0  0  0  0  0  0  0  0  0
    6.6596    5.5960   -6.0864 O   0  5  0  0  0  0  0  0  0  0  0  0
    5.3182    2.5321   -3.5408 O   0  0  0  0  0  0  0  0  0  0  0  0
    4.9686    6.9084   -6.8932 O   0  0  0  0  0  0  0  0  0  0  0  0
   -0.4638    0.3757   -3.0928 O   0  0  0  0  0  0  0  0  0  0  0  0
    3.3684    7.6301   -2.5906 O   0  0  0  0  0  0  0  0  0  0  0  0
    5.1902    5.9064   -3.7500 O   0  0  0  0  0  0  0  0  0  0  0  0
    9.0942   -0.2429   -3.2898 H   0  0  0  0  0  0  0  0  0  0  0  0
    7.0150   -1.0452   -4.3800 H   0  0  0  0  0  0  0  0  0  0  0  0
    9.0021    0.7351   -1.0111 H   0  0  0  0  0  0  0  0  0  0  0  0
    4.8486   -0.8718   -3.2005 H   0  0  0  0  0  0  0  0  0  0  0  0
    6.8409    0.9129    0.1767 H   0  0  0  0  0  0  0  0  0  0  0  0
    2.6319    4.5108    0.6057 H   0  0  0  0  0  0  0  0  0  0  0  0
    2.2129    6.7148   -0.4197 H   0  0  0  0  0  0  0  0  0  0  0  0
    2.6858    1.1819   -3.6787 H   0  0  0  0  0  0  0  0  0  0  0  0
    1.5237    2.3998   -3.1194 H   0  0  0  0  0  0  0  0  0  0  0  0
    0.2048    1.3441   -4.8044 H   0  0  0  0  0  0  0  0  0  0  0  0
    0.9142   -0.2534   -4.4792 H   0  0  0  0  0  0  0  0  0  0  0  0
   -0.2768   -0.3061   -1.1426 H   0  0  0  0  0  0  0  0  0  0  0  0
   -0.3959    1.4554   -1.3478 H   0  0  0  0  0  0  0  0  0  0  0  0
    1.9692   -0.3822   -1.9592 H   0  0  0  0  0  0  0  0  0  0  0  0
    2.3163    9.4050   -2.4785 H   0  0  0  0  0  0  0  0  0  0  0  0
    2.7414    8.6543   -0.9088 H   0  0  0  0  0  0  0  0  0  0  0  0
    1.4489    7.9519   -1.9170 H   0  0  0  0  0  0  0  0  0  0  0  0
    3.7073   -0.6633   -1.0167 H   0  0  0  0  0  0  0  0  0  0  0  0
    4.5266    0.0699    0.3696 H   0  0  0  0  0  0  0  0  0  0  0  0
    5.3906    2.3538   -0.1745 H   0  0  0  0  0  0  0  0  0  0  0  0
    3.9189    2.5592    0.7858 H   0  0  0  0  0  0  0  0  0  0  0  0
    4.4568    4.4919   -5.0625 H   0  0  0  0  0  0  0  0  0  0  0  0
    3.5914    6.0524   -5.0427 H   0  0  0  0  0  0  0  0  0  0  0  0
    2.0827    0.8230    0.2148 H   0  0  0  0  0  0  0  0  0  0  0  0
    1.8470    2.3814   -0.6323 H   0  0  0  0  0  0  0  0  0  0  0  0
    3.8141    1.6421   -1.9868 H   0  0  0  0  0  0  0  0  0  0  0  0
  1  2  2  0  0  0  0
  1  3  1  0  0  0  0
  2  4  1  0  0  0  0
  3  5  2  0  0  0  0
  4  9  2  0  0  0  0
  5  9  1  0  0  0  0
  6  7  1  0  0  0  0
  6 10  2  0  0  0  0
  7 11  2  0  0  0  0
  8 10  1  0  0  0  0
  8 12  2  0  0  0  0
  8 13  1  0  0  0  0
  9 20  1  0  0  0  0
 10 21  1  0  0  0  0
 11 12  1  0  0  0  0
 11 30  1  0  0  0  0
 12 31  1  0  0  0  0
 13 25  1  0  0  0  0
 13 27  2  0  0  0  0
 14 22  1  0  0  0  0
 14 26  1  0  0  0  0
 14 28  2  0  0  0  0
 15 16  1  0  0  0  0
 15 18  1  0  0  0  0
 16 29  1  0  0  0  0
 17 18  1  0  0  0  0
 17 29  1  0  0  0  0
 18 23  1  0  0  0  0
 19 30  1  0  0  0  0
 20 24  1  0  0  0  0
 21 24  1  0  0  0  0
 22 31  1  0  0  0  0
 23 24  1  0  0  0  0
  1 32  1  0  0  0  0
  2 33  1  0  0  0  0
  3 34  1  0  0  0  0
  4 35  1  0  0  0  0
  5 36  1  0  0  0  0
  6 37  1  0  0  0  0
  7 38  1  0  0  0  0
 15 39  1  0  0  0  0
 15 40  1  0  0  0  0
 16 41  1  0  0  0  0
 16 42  1  0  0  0  0
 17 43  1  0  0  0  0
 17 44  1  0  0  0  0
 18 45  1  0  0  0  0
 19 46  1  0  0  0  0
 19 47  1  0  0  0  0
 19 48  1  0  0  0  0
 20 49  1  0  0  0  0
 20 50  1  0  0  0  0
 21 51  1  0  0  0  0
 21 52  1  0  0  0  0
 22 53  1  0  0  0  0
 22 54  1  0  0  0  0
 23 55  1  0  0  0  0
 23 56  1  0  0  0  0
 24 57  1  0  0  0  0
M  CHG  3  24   1  25  -1  26  -1
M  END
$$$$
