@<TRIPOS>MOLECULE
AVX101124_1
   57    60     0     0     0
SMALL
NO_CHARGES

@<TRIPOS>ATOM
      1 C1          2.6138   -0.5418   -3.0073 C.ar      1 MOL         0.0000
      2 C2          1.4909   -1.3596   -3.1976 C.ar      1 MOL         0.0000
      3 C3          2.7287    0.2556   -1.8656 C.ar      1 MOL         0.0000
      4 C4          4.1253    2.9265   -0.3170 C.ar      1 MOL         0.0000
      5 C5          0.4686   -1.3912   -2.2482 C.ar      1 MOL         0.0000
      6 C6          5.4182    3.1347   -0.8031 C.ar      1 MOL         0.0000
      7 C7          1.7073    0.2221   -0.9263 C.ar      1 MOL         0.0000
      8 C8          3.8362    1.8157    0.4951 C.ar      1 MOL         0.0000
      9 C9          4.8368    0.9003    0.8303 C.ar      1 MOL         0.0000
     10 C10         0.5861   -0.5906   -1.1214 C.ar      1 MOL         0.0000
     11 C11         6.3880    2.2161   -0.4574 C.ar      1 MOL         0.0000
     12 C12         6.1051    1.1289    0.3375 C.ar      1 MOL         0.0000
     13 C13         1.5493    0.9442    0.3347 C.2       1 MOL         0.0000
     14 C14         2.4934    1.6513    0.9658 C.2       1 MOL         0.0000
     15 C15         4.5706   -0.2728    1.6814 C.2       1 MOL         0.0000
     16 C16        -1.7542    2.2282    1.3428 C.2       1 MOL         0.0000
     17 C17        -0.3706   -0.5185    0.0316 C.3       1 MOL         0.0000
     18 C18         8.2032    1.0696   -0.1882 C.3       1 MOL         0.0000
     19 C19         0.1425    0.6943    0.8317 C.3       1 MOL         0.0000
     20 C20        -2.4099    3.4977    0.8241 C.3       1 MOL         0.0000
     21 C21        -3.6299    3.9356    1.6332 C.3       1 MOL         0.0000
     22 C22        -4.2615    5.2211    1.0874 C.3       1 MOL         0.0000
     23 C23        -5.4652    5.6468    1.9339 C.3       1 MOL         0.0000
     24 C24        -6.1287    6.9279    1.4436 C.3       1 MOL         0.0000
     25 N1         -0.6538    1.8731    0.5762 N.am      1 MOL         0.0000
     26 N2         -6.6277    6.7623    0.0582 N.4       1 MOL         0.0000
     27 O1          4.7089   -0.1561    2.9557 O.co2     1 MOL         0.0000
     28 O2          4.2093   -1.3737    1.1211 O.co2     1 MOL         0.0000
     29 O3         -2.1765    1.5996    2.3094 O.2       1 MOL         0.0000
     30 O4          7.6950    2.2547   -0.8342 O.3       1 MOL         0.0000
     31 O5          7.1995    0.3506    0.5576 O.3       1 MOL         0.0000
     32 H1          3.4020   -0.5290   -3.7551 H         1 MOL         0.0000
     33 H2          1.4197   -1.9764   -4.0894 H         1 MOL         0.0000
     34 H3          3.6024    0.8855   -1.7341 H         1 MOL         0.0000
     35 H4          3.3459    3.6398   -0.5771 H         1 MOL         0.0000
     36 H5         -0.3944   -2.0330   -2.3913 H         1 MOL         0.0000
     37 H6          5.6445    3.9900   -1.4298 H         1 MOL         0.0000
     38 H7          2.2255    2.1098    1.9160 H         1 MOL         0.0000
     39 H8         -1.4059   -0.3987   -0.3040 H         1 MOL         0.0000
     40 H9         -0.2819   -1.4355    0.6254 H         1 MOL         0.0000
     41 H10         8.6173    0.4029   -0.9533 H         1 MOL         0.0000
     42 H11         9.0072    1.3617    0.4971 H         1 MOL         0.0000
     43 H12         0.1008    0.4990    1.9084 H         1 MOL         0.0000
     44 H13        -1.6670    4.3032    0.7919 H         1 MOL         0.0000
     45 H14        -2.7231    3.2960   -0.2077 H         1 MOL         0.0000
     46 H15        -4.3758    3.1321    1.5969 H         1 MOL         0.0000
     47 H16        -3.3589    4.0714    2.6871 H         1 MOL         0.0000
     48 H17        -4.5823    5.0587    0.0512 H         1 MOL         0.0000
     49 H18        -3.5140    6.0210    1.0726 H         1 MOL         0.0000
     50 H19        -6.2153    4.8465    1.9153 H         1 MOL         0.0000
     51 H20        -5.1563    5.7651    2.9799 H         1 MOL         0.0000
     52 H21        -6.9848    7.2126    2.0622 H         1 MOL         0.0000
     53 H22        -5.4102    7.7525    1.4186 H         1 MOL         0.0000
     54 H23        -0.3950    2.4710   -0.2032 H         1 MOL         0.0000
     55 H24        -6.6424    5.7726   -0.2126 H         1 MOL         0.0000
     56 H25        -6.0308    7.2626   -0.6103 H         1 MOL         0.0000
     57 H26        -7.5817    7.1287   -0.0362 H         1 MOL         0.0000
@<TRIPOS>BOND
     1    1    2 ar
     2    1    3 ar
     3    2    5 ar
     4    3    7 ar
     5    4    6 ar
     6    4    8 ar
     7    5   10 ar
     8    6   11 ar
     9    7   10 ar
    10    7   13 1
    11    8    9 ar
    12    8   14 1
    13    9   12 ar
    14    9   15 1
    15   10   17 1
    16   11   12 ar
    17   11   30 1
    18   12   31 1
    19   13   14 2
    20   13   19 1
    21   15   27 1
    22   15   28 2
    23   16   20 1
    24   16   25 am
    25   16   29 2
    26   17   19 1
    27   18   30 1
    28   18   31 1
    29   19   25 1
    30   20   21 1
    31   21   22 1
    32   22   23 1
    33   23   24 1
    34   24   26 1
    35    1   32 1
    36    2   33 1
    37    3   34 1
    38    4   35 1
    39    5   36 1
    40    6   37 1
    41   14   38 1
    42   17   39 1
    43   17   40 1
    44   18   41 1
    45   18   42 1
    46   19   43 1
    47   20   44 1
    48   20   45 1
    49   21   46 1
    50   21   47 1
    51   22   48 1
    52   22   49 1
    53   23   50 1
    54   23   51 1
    55   24   52 1
    56   24   53 1
    57   25   54 1
    58   26   55 1
    59   26   56 1
    60   26   57 1
