@<TRIPOS>MOLECULE
AVX17482_1
   31    33     0     0     0
SMALL
NO_CHARGES

@<TRIPOS>ATOM
      1 C1         -1.9204    0.9555    0.2371 C.ar      1 MOL         0.0000
      2 C2         -1.0710   -0.1533    0.1009 C.ar      1 MOL         0.0000
      3 C3         -3.3002    0.7836    0.3651 C.ar      1 MOL         0.0000
      4 C4         -1.5898   -1.4496    0.0889 C.ar      1 MOL         0.0000
      5 C5         -5.5098   -6.9732   -1.0171 C.2       1 MOL         0.0000
      6 C6         -3.8051   -0.5062    0.3639 C.ar      1 MOL         0.0000
      7 C7         -2.9600   -1.6126    0.2208 C.ar      1 MOL         0.0000
      8 C8         -6.4192   -6.0592   -1.5067 C.2       1 MOL         0.0000
      9 C9         -4.7154   -4.7082   -1.2200 C.2       1 MOL         0.0000
     10 C10        -7.8478   -6.4509   -1.8979 C.2       1 MOL         0.0000
     11 C11        -5.2395   -0.9289    0.4558 C.3       1 MOL         0.0000
     12 C12        -3.7410   -2.8990    0.2166 C.3       1 MOL         0.0000
     13 C13        -5.0962   -2.4238    0.7918 C.3       1 MOL         0.0000
     14 C14        -3.8789   -3.4574   -1.1952 C.3       1 MOL         0.0000
     15 N1         -5.9656   -4.7598   -1.6233 N.2       1 MOL         0.0000
     16 O1         -8.5830   -5.5243   -2.3321 O.co2     1 MOL         0.0000
     17 O2         -8.1561   -7.6635   -1.7490 O.co2     1 MOL         0.0000
     18 O3         -5.0816   -2.5609    2.2158 O.3       1 MOL         0.0000
     19 S1         -4.0225   -6.1853   -0.6879 S.3       1 MOL         0.0000
     20 H1         -1.4991    1.9572    0.2394 H         1 MOL         0.0000
     21 H2         -0.0000   -0.0000   -0.0004 H         1 MOL         0.0000
     22 H3         -3.9556    1.6424    0.4627 H         1 MOL         0.0000
     23 H4         -0.9316   -2.3045   -0.0232 H         1 MOL         0.0000
     24 H5         -5.6390   -8.0320   -0.8417 H         1 MOL         0.0000
     25 H6         -5.7728   -0.3755    1.2343 H         1 MOL         0.0000
     26 H7         -5.7207   -0.7871   -0.5174 H         1 MOL         0.0000
     27 H8         -3.2643   -3.6324    0.8769 H         1 MOL         0.0000
     28 H9         -5.9502   -3.0027    0.4250 H         1 MOL         0.0000
     29 H10        -2.8849   -3.6668   -1.6056 H         1 MOL         0.0000
     30 H11        -4.3250   -2.6989   -1.8479 H         1 MOL         0.0000
     31 H12        -4.9908   -3.5079    2.3957 H         1 MOL         0.0000
@<TRIPOS>BOND
     1    1    2 ar
     2    1    3 ar
     3    2    4 ar
     4    3    6 ar
     5    4    7 ar
     6    5    8 2
     7    5   19 1
     8    6    7 ar
     9    6   11 1
    10    7   12 1
    11    8   10 1
    12    8   15 1
    13    9   14 1
    14    9   15 2
    15    9   19 1
    16   10   16 1
    17   10   17 2
    18   11   13 1
    19   12   13 1
    20   12   14 1
    21   13   18 1
    22    1   20 1
    23    2   21 1
    24    3   22 1
    25    4   23 1
    26    5   24 1
    27   11   25 1
    28   11   26 1
    29   12   27 1
    30   13   28 1
    31   14   29 1
    32   14   30 1
    33   18   31 1
