AVX17556_0
  -OEChem-04011314543D

 56 59  0     1  0  0  0  0  0999 V2000
    0.8227    2.4972    0.7613 C   0  0  0  0  0  0  0  0  0  0  0  0
   -0.4669    2.5713    0.2131 C   0  0  0  0  0  0  0  0  0  0  0  0
    1.5390    1.2996    0.7338 C   0  0  0  0  0  0  0  0  0  0  0  0
   -1.0594    1.4490   -0.3711 C   0  0  0  0  0  0  0  0  0  0  0  0
   -2.4796   -3.8559   -1.4741 C   0  0  0  0  0  0  0  0  0  0  0  0
   -2.8336   -4.8738   -2.3629 C   0  0  0  0  0  0  0  0  0  0  0  0
   -3.0745   -2.1579   -3.1146 C   0  0  0  0  0  0  0  0  0  0  0  0
    0.9389    0.1885    0.1645 C   0  0  0  0  0  0  0  0  0  0  0  0
   -0.3497    0.2584   -0.3845 C   0  0  0  0  0  0  0  0  0  0  0  0
   -2.5995   -2.5057   -1.8477 C   0  0  0  0  0  0  0  0  0  0  0  0
   -3.2998   -4.5036   -3.6076 C   0  0  0  0  0  0  0  0  0  0  0  0
   -3.4172   -3.1820   -3.9733 C   0  0  0  0  0  0  0  0  0  0  0  0
   -3.2102   -0.7525   -3.5295 C   0  0  0  0  0  0  0  0  0  0  0  0
    0.1187   -3.7704    1.5082 C   0  0  0  0  0  0  0  0  0  0  0  0
    1.5227   -1.1831   -0.0012 C   0  0  0  0  0  0  0  0  0  0  0  0
   -4.0662   -4.4145   -5.6292 C   0  0  0  0  0  0  0  0  0  0  0  0
   -0.7357   -1.0684   -0.9834 C   0  0  1  0  0  0  0  0  0  0  0  0
    0.2556   -2.0223   -0.2630 C   0  0  2  0  0  0  0  0  0  0  0  0
   -2.2053   -1.4449   -0.8546 C   0  0  0  0  0  0  0  0  0  0  0  0
   -0.5652   -4.0428    2.8381 C   0  0  0  0  0  0  0  0  0  0  0  0
   -0.8014   -5.5264    3.1167 C   0  0  0  0  0  0  0  0  0  0  0  0
   -1.7460   -6.1687    2.0964 C   0  0  0  0  0  0  0  0  0  0  0  0
   -1.9338   -7.6508    2.3869 C   0  0  0  0  0  0  0  0  0  0  0  0
   -0.2619   -2.5453    0.9850 N   0  0  0  0  0  0  0  0  0  0  0  0
   -2.8880   -8.2210    1.4056 N   0  3  0  0  0  0  0  0  0  0  0  0
   -4.3230   -0.1443   -3.3044 O   0  5  0  0  0  0  0  0  0  0  0  0
   -2.2119   -0.1767   -4.1046 O   0  0  0  0  0  0  0  0  0  0  0  0
    0.9206   -4.5446    0.9930 O   0  0  0  0  0  0  0  0  0  0  0  0
   -3.6905   -5.3507   -4.5983 O   0  0  0  0  0  0  0  0  0  0  0  0
   -3.8957   -3.0364   -5.2389 O   0  0  0  0  0  0  0  0  0  0  0  0
    1.2689    3.3828    1.2056 H   0  0  0  0  0  0  0  0  0  0  0  0
   -1.0066    3.5142    0.2372 H   0  0  0  0  0  0  0  0  0  0  0  0
    2.5395    1.2462    1.1494 H   0  0  0  0  0  0  0  0  0  0  0  0
   -2.0502    1.5210   -0.8061 H   0  0  0  0  0  0  0  0  0  0  0  0
   -2.1094   -4.1181   -0.4858 H   0  0  0  0  0  0  0  0  0  0  0  0
   -2.7428   -5.9160   -2.0788 H   0  0  0  0  0  0  0  0  0  0  0  0
    2.1846   -1.1908   -0.8739 H   0  0  0  0  0  0  0  0  0  0  0  0
    2.0709   -1.5091    0.8880 H   0  0  0  0  0  0  0  0  0  0  0  0
   -3.4531   -4.6059   -6.5173 H   0  0  0  0  0  0  0  0  0  0  0  0
   -5.1190   -4.5789   -5.8858 H   0  0  0  0  0  0  0  0  0  0  0  0
   -0.4715   -1.0323   -2.0492 H   0  0  0  0  0  0  0  0  0  0  0  0
    0.4807   -2.8974   -0.8823 H   0  0  0  0  0  0  0  0  0  0  0  0
   -2.8281   -0.5541   -0.9974 H   0  0  0  0  0  0  0  0  0  0  0  0
   -2.4080   -1.7972    0.1636 H   0  0  0  0  0  0  0  0  0  0  0  0
   -1.5134   -3.4938    2.8779 H   0  0  0  0  0  0  0  0  0  0  0  0
    0.0856   -3.6345    3.6211 H   0  0  0  0  0  0  0  0  0  0  0  0
    0.1525   -6.0672    3.1341 H   0  0  0  0  0  0  0  0  0  0  0  0
   -1.2418   -5.6252    4.1167 H   0  0  0  0  0  0  0  0  0  0  0  0
   -2.7174   -5.6594    2.1263 H   0  0  0  0  0  0  0  0  0  0  0  0
   -1.3497   -6.0400    1.0823 H   0  0  0  0  0  0  0  0  0  0  0  0
   -2.3588   -7.8236    3.3800 H   0  0  0  0  0  0  0  0  0  0  0  0
   -0.9995   -8.2103    2.2830 H   0  0  0  0  0  0  0  0  0  0  0  0
   -0.9433   -1.9800    1.4797 H   0  0  0  0  0  0  0  0  0  0  0  0
   -3.5830   -7.5227    1.1199 H   0  0  0  0  0  0  0  0  0  0  0  0
   -3.3908   -9.0213    1.8050 H   0  0  0  0  0  0  0  0  0  0  0  0
   -2.3999   -8.5437    0.5629 H   0  0  0  0  0  0  0  0  0  0  0  0
  1  2  1  0  0  0  0
  1  3  2  0  0  0  0
  2  4  2  0  0  0  0
  3  8  1  0  0  0  0
  4  9  1  0  0  0  0
  5  6  2  0  0  0  0
  5 10  1  0  0  0  0
  6 11  1  0  0  0  0
  7 10  2  0  0  0  0
  7 12  1  0  0  0  0
  7 13  1  0  0  0  0
  8  9  2  0  0  0  0
  8 15  1  0  0  0  0
  9 17  1  0  0  0  0
 10 19  1  0  0  0  0
 11 12  2  0  0  0  0
 11 29  1  0  0  0  0
 12 30  1  0  0  0  0
 13 26  1  0  0  0  0
 13 27  2  0  0  0  0
 14 20  1  0  0  0  0
 14 24  1  0  0  0  0
 14 28  2  0  0  0  0
 15 18  1  0  0  0  0
 16 29  1  0  0  0  0
 16 30  1  0  0  0  0
 17 18  1  0  0  0  0
 17 19  1  0  0  0  0
 18 24  1  0  0  0  0
 20 21  1  0  0  0  0
 21 22  1  0  0  0  0
 22 23  1  0  0  0  0
 23 25  1  0  0  0  0
  1 31  1  0  0  0  0
  2 32  1  0  0  0  0
  3 33  1  0  0  0  0
  4 34  1  0  0  0  0
  5 35  1  0  0  0  0
  6 36  1  0  0  0  0
 15 37  1  0  0  0  0
 15 38  1  0  0  0  0
 16 39  1  0  0  0  0
 16 40  1  0  0  0  0
 17 41  1  0  0  0  0
 18 42  1  0  0  0  0
 19 43  1  0  0  0  0
 19 44  1  0  0  0  0
 20 45  1  0  0  0  0
 20 46  1  0  0  0  0
 21 47  1  0  0  0  0
 21 48  1  0  0  0  0
 22 49  1  0  0  0  0
 22 50  1  0  0  0  0
 23 51  1  0  0  0  0
 23 52  1  0  0  0  0
 24 53  1  0  0  0  0
 25 54  1  0  0  0  0
 25 55  1  0  0  0  0
 25 56  1  0  0  0  0
M  CHG  2  25   1  26  -1
M  END
$$$$
