@<TRIPOS>MOLECULE
AVX17631_0
   16    17     0     0     0
SMALL
NO_CHARGES

@<TRIPOS>ATOM
      1 C1         -1.2009    1.0896   -1.4147 C.ar      1 MOL         0.0000
      2 C2         -0.8799   -0.0285   -0.6380 C.ar      1 MOL         0.0000
      3 C3         -2.3265    1.0925   -2.2508 C.ar      1 MOL         0.0000
      4 C4         -1.6680   -1.1837   -0.6662 C.ar      1 MOL         0.0000
      5 C5         -3.1259   -0.0594   -2.2892 C.ar      1 MOL         0.0000
      6 C6         -2.7767   -1.1462   -1.5067 C.ar      1 MOL         0.0000
      7 C7         -4.2933   -0.4889   -2.9495 C.2       1 MOL         0.0000
      8 N1         -4.6417   -1.7335   -2.6097 N.2       1 MOL         0.0000
      9 N2         -4.9580    0.3073   -3.8262 N.pl3     1 MOL         0.0000
     10 O1         -3.6797   -2.1469   -1.6963 O.3       1 MOL         0.0000
     11 H1         -0.5675    1.9720   -1.3701 H         1 MOL         0.0000
     12 H2         -0.0003    0.0003    0.0005 H         1 MOL         0.0000
     13 H3         -2.5624    1.9678   -2.8479 H         1 MOL         0.0000
     14 H4         -1.4274   -2.0543   -0.0685 H         1 MOL         0.0000
     15 H5         -4.6634    1.2735   -4.0088 H         1 MOL         0.0000
     16 H6         -5.8342    0.0086   -4.2696 H         1 MOL         0.0000
@<TRIPOS>BOND
     1    1    2 ar
     2    1    3 ar
     3    2    4 ar
     4    3    5 ar
     5    4    6 ar
     6    5    6 ar
     7    5    7 1
     8    6   10 1
     9    7    8 2
    10    7    9 1
    11    8   10 1
    12    1   11 1
    13    2   12 1
    14    3   13 1
    15    4   14 1
    16    9   15 1
    17    9   16 1
