AVX101139_3
  -OEChem-04011314513D

 57 59  0     1  0  0  0  0  0999 V2000
   -5.5553    5.0616   -1.1425 C   0  0  0  0  0  0  0  0  0  0  0  0
   -4.8453    3.9888   -1.6816 C   0  0  0  0  0  0  0  0  0  0  0  0
   -4.9808    5.8461   -0.1424 C   0  0  0  0  0  0  0  0  0  0  0  0
   -3.5608    3.7005   -1.2206 C   0  0  0  0  0  0  0  0  0  0  0  0
   -3.6963    5.5578    0.3186 C   0  0  0  0  0  0  0  0  0  0  0  0
   -1.1887    2.9561    4.8621 C   0  0  0  0  0  0  0  0  0  0  0  0
   -1.2846    2.0861    5.9481 C   0  0  0  0  0  0  0  0  0  0  0  0
   -3.2453    2.0614    3.9638 C   0  0  0  0  0  0  0  0  0  0  0  0
   -2.9862    4.4850   -0.2205 C   0  0  0  0  0  0  0  0  0  0  0  0
   -2.1691    2.9438    3.8699 C   0  0  0  0  0  0  0  0  0  0  0  0
   -2.3608    1.2037    6.0420 C   0  0  0  0  0  0  0  0  0  0  0  0
   -3.3412    1.1914    5.0498 C   0  0  0  0  0  0  0  0  0  0  0  0
   -4.2839    2.0438    2.9144 C   0  0  0  0  0  0  0  0  0  0  0  0
   -5.5136   -1.7341    4.7842 C   0  0  0  0  0  0  0  0  0  0  0  0
    1.1103    0.6560    0.5814 C   0  0  0  0  0  0  0  0  0  0  0  0
    0.7443   -0.6054   -0.1725 C   0  0  0  0  0  0  0  0  0  0  0  0
   -1.2033    0.2999    0.7304 C   0  0  0  0  0  0  0  0  0  0  0  0
   -0.1948    1.4212    0.5502 C   0  0  1  0  0  0  0  0  0  0  0  0
   -1.3978    0.4373    8.0769 C   0  0  0  0  0  0  0  0  0  0  0  0
   -1.6048    4.1752    0.2760 C   0  0  0  0  0  0  0  0  0  0  0  0
   -2.0396    3.8909    2.7135 C   0  0  0  0  0  0  0  0  0  0  0  0
   -4.2257   -0.9600    4.5546 C   0  0  0  0  0  0  0  0  0  0  0  0
   -0.3006    2.5132    1.5974 C   0  0  0  0  0  0  0  0  0  0  0  0
   -1.5961    3.2120    1.4393 N   0  3  2  0  0  0  0  0  0  0  0  0
   -5.3048    2.8141    3.0465 O   0  5  0  0  0  0  0  0  0  0  0  0
   -6.5531   -1.1992    4.3054 O   0  5  0  0  0  0  0  0  0  0  0  0
   -4.1286    1.2588    1.9082 O   0  0  0  0  0  0  0  0  0  0  0  0
   -5.3815   -2.8180    5.4186 O   0  0  0  0  0  0  0  0  0  0  0  0
   -0.6449   -0.8561    0.0870 O   0  0  0  0  0  0  0  0  0  0  0  0
   -2.4417    0.3596    7.1083 O   0  0  0  0  0  0  0  0  0  0  0  0
   -4.3901    0.3249    5.1495 O   0  0  0  0  0  0  0  0  0  0  0  0
   -6.5550    5.2868   -1.5025 H   0  0  0  0  0  0  0  0  0  0  0  0
   -5.2921    3.3786   -2.4611 H   0  0  0  0  0  0  0  0  0  0  0  0
   -5.5329    6.6820    0.2768 H   0  0  0  0  0  0  0  0  0  0  0  0
   -3.0151    2.8626   -1.6464 H   0  0  0  0  0  0  0  0  0  0  0  0
   -3.2567    6.1744    1.0982 H   0  0  0  0  0  0  0  0  0  0  0  0
   -0.3465    3.6400    4.7980 H   0  0  0  0  0  0  0  0  0  0  0  0
   -0.5177    2.1008    6.7178 H   0  0  0  0  0  0  0  0  0  0  0  0
    1.3877    0.4066    1.6128 H   0  0  0  0  0  0  0  0  0  0  0  0
    1.9459    1.1932    0.1241 H   0  0  0  0  0  0  0  0  0  0  0  0
    0.8627   -0.4706   -1.2529 H   0  0  0  0  0  0  0  0  0  0  0  0
    1.3393   -1.4685    0.1391 H   0  0  0  0  0  0  0  0  0  0  0  0
   -1.3597    0.0494    1.7855 H   0  0  0  0  0  0  0  0  0  0  0  0
   -2.1731    0.5332    0.2810 H   0  0  0  0  0  0  0  0  0  0  0  0
   -0.3223    1.8610   -0.4477 H   0  0  0  0  0  0  0  0  0  0  0  0
   -1.5837   -0.2879    8.8730 H   0  0  0  0  0  0  0  0  0  0  0  0
   -1.3588    1.4477    8.4916 H   0  0  0  0  0  0  0  0  0  0  0  0
   -0.4458    0.2072    7.5927 H   0  0  0  0  0  0  0  0  0  0  0  0
   -0.9931    3.7225   -0.5118 H   0  0  0  0  0  0  0  0  0  0  0  0
   -1.0937    5.0827    0.6152 H   0  0  0  0  0  0  0  0  0  0  0  0
   -2.9947    4.3798    2.4934 H   0  0  0  0  0  0  0  0  0  0  0  0
   -1.3043    4.6748    2.9247 H   0  0  0  0  0  0  0  0  0  0  0  0
   -4.0403   -0.8416    3.4827 H   0  0  0  0  0  0  0  0  0  0  0  0
   -3.3691   -1.4608    5.0159 H   0  0  0  0  0  0  0  0  0  0  0  0
    0.4869    3.2605    1.4784 H   0  0  0  0  0  0  0  0  0  0  0  0
   -0.2760    2.1021    2.6090 H   0  0  0  0  0  0  0  0  0  0  0  0
   -2.3198    2.5029    1.2260 H   0  0  0  0  0  0  0  0  0  0  0  0
  1  2  2  0  0  0  0
  1  3  1  0  0  0  0
  2  4  1  0  0  0  0
  3  5  2  0  0  0  0
  4  9  2  0  0  0  0
  5  9  1  0  0  0  0
  6  7  1  0  0  0  0
  6 10  2  0  0  0  0
  7 11  2  0  0  0  0
  8 10  1  0  0  0  0
  8 12  2  0  0  0  0
  8 13  1  0  0  0  0
  9 20  1  0  0  0  0
 10 21  1  0  0  0  0
 11 12  1  0  0  0  0
 11 30  1  0  0  0  0
 12 31  1  0  0  0  0
 13 25  1  0  0  0  0
 13 27  2  0  0  0  0
 14 22  1  0  0  0  0
 14 26  1  0  0  0  0
 14 28  2  0  0  0  0
 15 16  1  0  0  0  0
 15 18  1  0  0  0  0
 16 29  1  0  0  0  0
 17 18  1  0  0  0  0
 17 29  1  0  0  0  0
 18 23  1  0  0  0  0
 19 30  1  0  0  0  0
 20 24  1  0  0  0  0
 21 24  1  0  0  0  0
 22 31  1  0  0  0  0
 23 24  1  0  0  0  0
  1 32  1  0  0  0  0
  2 33  1  0  0  0  0
  3 34  1  0  0  0  0
  4 35  1  0  0  0  0
  5 36  1  0  0  0  0
  6 37  1  0  0  0  0
  7 38  1  0  0  0  0
 15 39  1  0  0  0  0
 15 40  1  0  0  0  0
 16 41  1  0  0  0  0
 16 42  1  0  0  0  0
 17 43  1  0  0  0  0
 17 44  1  0  0  0  0
 18 45  1  0  0  0  0
 19 46  1  0  0  0  0
 19 47  1  0  0  0  0
 19 48  1  0  0  0  0
 20 49  1  0  0  0  0
 20 50  1  0  0  0  0
 21 51  1  0  0  0  0
 21 52  1  0  0  0  0
 22 53  1  0  0  0  0
 22 54  1  0  0  0  0
 23 55  1  0  0  0  0
 23 56  1  0  0  0  0
 24 57  1  0  0  0  0
M  CHG  3  24   1  25  -1  26  -1
M  END
$$$$
