@<TRIPOS>MOLECULE
AVX17280_0
   31    33     0     0     0
SMALL
NO_CHARGES

@<TRIPOS>ATOM
      1 C1          0.6617   -0.8335   -0.9502 C.ar      1 MOL         0.0000
      2 C2         -0.3677   -0.0155    1.5997 C.ar      1 MOL         0.0000
      3 C3         -0.1609    0.2652   -0.7891 C.ar      1 MOL         0.0000
      4 C4          0.9517   -1.5145    0.2158 C.ar      1 MOL         0.0000
      5 C5         -0.6676    0.6744    0.4385 C.ar      1 MOL         0.0000
      6 C6          0.4541   -1.1192    1.4490 C.ar      1 MOL         0.0000
      7 C7         -0.6667    1.2069   -1.7511 C.2       1 MOL         0.0000
      8 C8         -1.4649    6.0092   -0.4888 C.2       1 MOL         0.0000
      9 C9          1.6809   -2.8837    1.7287 C.3       1 MOL         0.0000
     10 C10        -1.5465    2.1775   -1.0010 C.3       1 MOL         0.0000
     11 C11        -1.9719    8.2135    0.2055 C.3       1 MOL         0.0000
     12 C12        -1.9468    4.5816   -0.3659 C.3       1 MOL         0.0000
     13 C13        -1.0767    3.6097   -1.1621 C.3       1 MOL         0.0000
     14 O1         -0.4137    1.1978   -2.9396 O.2       1 MOL         0.0000
     15 O2         -0.4859    6.3711   -1.1269 O.2       1 MOL         0.0000
     16 O3          1.7366   -2.6236    0.3115 O.3       1 MOL         0.0000
     17 O4          0.8723   -1.9366    2.4556 O.3       1 MOL         0.0000
     18 O5         -1.4575    1.7950    0.3941 O.3       1 MOL         0.0000
     19 O6         -2.3000    6.8205    0.2260 O.3       1 MOL         0.0000
     20 H1          1.0494   -1.1380   -1.9129 H         1 MOL         0.0000
     21 H2         -0.7507    0.2882    2.5655 H         1 MOL         0.0000
     22 H3          1.2699   -3.8878    1.8848 H         1 MOL         0.0000
     23 H4          2.7003   -2.8551    2.1305 H         1 MOL         0.0000
     24 H5         -2.5862    2.0529   -1.3222 H         1 MOL         0.0000
     25 H6         -2.6983    8.7685    0.8043 H         1 MOL         0.0000
     26 H7         -1.9809    8.5758   -0.8256 H         1 MOL         0.0000
     27 H8         -0.9740    8.3499    0.6289 H         1 MOL         0.0000
     28 H9         -1.9313    4.3057    0.6945 H         1 MOL         0.0000
     29 H10        -2.9786    4.5367   -0.7320 H         1 MOL         0.0000
     30 H11        -1.0933    3.8826   -2.2255 H         1 MOL         0.0000
     31 H12        -0.0322    3.6918   -0.8340 H         1 MOL         0.0000
@<TRIPOS>BOND
     1    1    3 ar
     2    1    4 ar
     3    2    5 ar
     4    2    6 ar
     5    3    5 ar
     6    3    7 1
     7    4    6 ar
     8    4   16 1
     9    5   18 1
    10    6   17 1
    11    7   10 1
    12    7   14 2
    13    8   12 1
    14    8   15 2
    15    8   19 1
    16    9   16 1
    17    9   17 1
    18   10   13 1
    19   10   18 1
    20   11   19 1
    21   12   13 1
    22    1   20 1
    23    2   21 1
    24    9   22 1
    25    9   23 1
    26   10   24 1
    27   11   25 1
    28   11   26 1
    29   11   27 1
    30   12   28 1
    31   12   29 1
    32   13   30 1
    33   13   31 1
