AVX16688_0
  -OEChem-04011314513D

 25 27  0     0  0  0  0  0  0999 V2000
   -0.1948   -1.2188   -1.7733 C   0  0  0  0  0  0  0  0  0  0  0  0
    0.0489   -1.0083   -0.4029 C   0  0  0  0  0  0  0  0  0  0  0  0
    1.0159   -9.1727   -3.4366 C   0  0  0  0  0  0  0  0  0  0  0  0
   -0.1402   -2.5032   -2.3253 C   0  0  0  0  0  0  0  0  0  0  0  0
    0.3519   -2.0775    0.4422 C   0  0  0  0  0  0  0  0  0  0  0  0
    1.2563   -7.7972   -3.6677 C   0  0  0  0  0  0  0  0  0  0  0  0
   -0.0411   -9.2334   -2.5585 C   0  0  0  0  0  0  0  0  0  0  0  0
    0.1604   -3.5565   -1.4826 C   0  0  0  0  0  0  0  0  0  0  0  0
    0.4008   -3.3366   -0.1231 C   0  0  0  0  0  0  0  0  0  0  0  0
    0.3289   -7.1155   -2.9147 C   0  0  0  0  0  0  0  0  0  0  0  0
    0.3033   -4.9945   -1.6833 C   0  0  0  0  0  0  0  0  0  0  0  0
    0.6440   -5.6207   -0.3620 C   0  0  0  0  0  0  0  0  0  0  0  0
    0.1687   -5.6938   -2.8117 C   0  0  0  0  0  0  0  0  0  0  0  0
    0.6826   -4.5427    0.5281 N   0  0  0  0  0  0  0  0  0  0  0  0
    0.8372   -6.8024   -0.1432 O   0  0  0  0  0  0  0  0  0  0  0  0
   -0.4658   -7.9837   -2.2356 O   0  0  0  0  0  0  0  0  0  0  0  0
   -0.4282   -0.3694   -2.4102 H   0  0  0  0  0  0  0  0  0  0  0  0
    0.0012    0.0003   -0.0007 H   0  0  0  0  0  0  0  0  0  0  0  0
    1.5486  -10.0140   -3.8554 H   0  0  0  0  0  0  0  0  0  0  0  0
   -0.3291   -2.6545   -3.3823 H   0  0  0  0  0  0  0  0  0  0  0  0
    0.5403   -1.9161    1.4974 H   0  0  0  0  0  0  0  0  0  0  0  0
    2.0155   -7.3659   -4.3056 H   0  0  0  0  0  0  0  0  0  0  0  0
   -0.5788  -10.0453   -2.0910 H   0  0  0  0  0  0  0  0  0  0  0  0
   -0.0527   -5.1412   -3.7249 H   0  0  0  0  0  0  0  0  0  0  0  0
    0.8882   -4.6244    1.5170 H   0  0  0  0  0  0  0  0  0  0  0  0
  1  2  2  0  0  0  0
  1  4  1  0  0  0  0
  2  5  1  0  0  0  0
  3  6  1  0  0  0  0
  3  7  2  0  0  0  0
  4  8  2  0  0  0  0
  5  9  2  0  0  0  0
  6 10  2  0  0  0  0
  7 16  1  0  0  0  0
  8  9  1  0  0  0  0
  8 11  1  0  0  0  0
  9 14  1  0  0  0  0
 10 13  1  0  0  0  0
 10 16  1  0  0  0  0
 11 12  1  0  0  0  0
 11 13  2  0  0  0  0
 12 14  1  0  0  0  0
 12 15  2  0  0  0  0
  1 17  1  0  0  0  0
  2 18  1  0  0  0  0
  3 19  1  0  0  0  0
  4 20  1  0  0  0  0
  5 21  1  0  0  0  0
  6 22  1  0  0  0  0
  7 23  1  0  0  0  0
 13 24  1  0  0  0  0
 14 25  1  0  0  0  0
M  END
$$$$
