@<TRIPOS>MOLECULE
AVX101139_2
   57    59     0     0     0
SMALL
NO_CHARGES

@<TRIPOS>ATOM
      1 C1         -0.0250    4.3688   -4.5728 C.ar      1 MOL         0.0000
      2 C2          1.1838    4.4621   -3.8831 C.ar      1 MOL         0.0000
      3 C3         -1.2167    4.1892   -3.8704 C.ar      1 MOL         0.0000
      4 C4          1.2010    4.3757   -2.4910 C.ar      1 MOL         0.0000
      5 C5         -1.1995    4.1029   -2.4783 C.ar      1 MOL         0.0000
      6 C6          1.0641   -0.2008   -0.2968 C.ar      1 MOL         0.0000
      7 C7          1.2161   -1.5505    0.0209 C.ar      1 MOL         0.0000
      8 C8          2.6783    0.3814    1.4039 C.ar      1 MOL         0.0000
      9 C9          0.0093    4.1962   -1.7886 C.ar      1 MOL         0.0000
     10 C10         1.7953    0.7651    0.3947 C.ar      1 MOL         0.0000
     11 C11         2.0992   -1.9342    1.0302 C.ar      1 MOL         0.0000
     12 C12         2.8303   -0.9683    1.7217 C.ar      1 MOL         0.0000
     13 C13         3.4524    1.4011    2.1397 C.2       1 MOL         0.0000
     14 C14         4.2990   -1.8710    4.9430 C.2       1 MOL         0.0000
     15 C15        -2.3857    1.3453    0.7255 C.3       1 MOL         0.0000
     16 C16        -3.7905    1.2214    1.2777 C.3       1 MOL         0.0000
     17 C17        -2.4292    2.1319    2.9348 C.3       1 MOL         0.0000
     18 C18        -1.8160    2.4542    1.5832 C.3       1 MOL         0.0000
     19 C19         1.4532   -4.1773    0.5750 C.3       1 MOL         0.0000
     20 C20         0.0270    4.1030   -0.2912 C.3       1 MOL         0.0000
     21 C21         1.6112    2.2090    0.0311 C.3       1 MOL         0.0000
     22 C22         3.1639   -1.4387    4.0289 C.3       1 MOL         0.0000
     23 C23        -0.3006    2.5132    1.5974 C.3       1 MOL         0.0000
     24 N1          0.1903    2.6883    0.2118 N.4       1 MOL         0.0000
     25 O1          4.6064    1.7421    1.6872 O.co2     1 MOL         0.0000
     26 O2          5.2985   -1.0985    4.9585 O.co2     1 MOL         0.0000
     27 O3          2.9434    1.9092    3.2053 O.co2     1 MOL         0.0000
     28 O4          4.0972   -2.9442    5.5772 O.co2     1 MOL         0.0000
     29 O5         -3.7212    1.5638    2.6698 O.3       1 MOL         0.0000
     30 O6          2.2376   -3.2560    1.3299 O.3       1 MOL         0.0000
     31 O7          3.6914   -1.3525    2.7076 O.3       1 MOL         0.0000
     32 H1         -0.0383    4.4373   -5.6566 H         1 MOL         0.0000
     33 H2          2.1117    4.6029   -4.4297 H         1 MOL         0.0000
     34 H3         -2.1581    4.1177   -4.4070 H         1 MOL         0.0000
     35 H4          2.1475    4.4493   -1.9620 H         1 MOL         0.0000
     36 H5         -2.1329    3.9629   -1.9394 H         1 MOL         0.0000
     37 H6          0.3738    0.0882   -1.0849 H         1 MOL         0.0000
     38 H7          0.6439   -2.2981   -0.5217 H         1 MOL         0.0000
     39 H8         -1.8372    0.4096    0.8887 H         1 MOL         0.0000
     40 H9         -2.3716    1.5664   -0.3454 H         1 MOL         0.0000
     41 H10        -4.4712    1.9297    0.7936 H         1 MOL         0.0000
     42 H11        -4.1983    0.2129    1.1658 H         1 MOL         0.0000
     43 H12        -1.8459    1.3867    3.4870 H         1 MOL         0.0000
     44 H13        -2.5444    3.0192    3.5643 H         1 MOL         0.0000
     45 H14        -2.2139    3.4143    1.2289 H         1 MOL         0.0000
     46 H15         1.6588   -5.1955    0.9142 H         1 MOL         0.0000
     47 H16         1.6955   -4.0794   -0.4862 H         1 MOL         0.0000
     48 H17         0.3951   -3.9515    0.7275 H         1 MOL         0.0000
     49 H18         0.8531    4.6846    0.1319 H         1 MOL         0.0000
     50 H19        -0.9048    4.4846    0.1399 H         1 MOL         0.0000
     51 H20         2.2425    2.8565    0.6491 H         1 MOL         0.0000
     52 H21         1.8732    2.3895   -1.0170 H         1 MOL         0.0000
     53 H22         2.7852   -0.4579    4.3323 H         1 MOL         0.0000
     54 H23         2.3427   -2.1618    4.0398 H         1 MOL         0.0000
     55 H24         0.1332    1.5867    1.9798 H         1 MOL         0.0000
     56 H25         0.0619    3.3635    2.1791 H         1 MOL         0.0000
     57 H26        -0.3897    2.0974   -0.4099 H         1 MOL         0.0000
@<TRIPOS>BOND
     1    1    2 ar
     2    1    3 ar
     3    2    4 ar
     4    3    5 ar
     5    4    9 ar
     6    5    9 ar
     7    6    7 ar
     8    6   10 ar
     9    7   11 ar
    10    8   10 ar
    11    8   12 ar
    12    8   13 1
    13    9   20 1
    14   10   21 1
    15   11   12 ar
    16   11   30 1
    17   12   31 1
    18   13   25 1
    19   13   27 2
    20   14   22 1
    21   14   26 1
    22   14   28 2
    23   15   16 1
    24   15   18 1
    25   16   29 1
    26   17   18 1
    27   17   29 1
    28   18   23 1
    29   19   30 1
    30   20   24 1
    31   21   24 1
    32   22   31 1
    33   23   24 1
    34    1   32 1
    35    2   33 1
    36    3   34 1
    37    4   35 1
    38    5   36 1
    39    6   37 1
    40    7   38 1
    41   15   39 1
    42   15   40 1
    43   16   41 1
    44   16   42 1
    45   17   43 1
    46   17   44 1
    47   18   45 1
    48   19   46 1
    49   19   47 1
    50   19   48 1
    51   20   49 1
    52   20   50 1
    53   21   51 1
    54   21   52 1
    55   22   53 1
    56   22   54 1
    57   23   55 1
    58   23   56 1
    59   24   57 1
