@<TRIPOS>MOLECULE
AVX17285_0
   30    32     0     0     0
SMALL
NO_CHARGES

@<TRIPOS>ATOM
      1 C1         -0.1948   -1.2188   -1.7733 C.ar      1 MOL         0.0000
      2 C2          0.0489   -1.0083   -0.4029 C.ar      1 MOL         0.0000
      3 C3          0.5479   -4.1853   -6.1991 C.ar      1 MOL         0.0000
      4 C4         -0.1402   -2.5032   -2.3253 C.ar      1 MOL         0.0000
      5 C5          0.8630   -4.7359   -4.9569 C.ar      1 MOL         0.0000
      6 C6         -0.7864   -4.0261   -6.5733 C.ar      1 MOL         0.0000
      7 C7          0.3519   -2.0775    0.4422 C.ar      1 MOL         0.0000
      8 C8         -1.4906   -4.9683   -4.4629 C.ar      1 MOL         0.0000
      9 C9          0.1604   -3.5565   -1.4826 C.ar      1 MOL         0.0000
     10 C10        -0.1562   -5.1275   -4.0888 C.ar      1 MOL         0.0000
     11 C11        -1.8056   -4.4177   -5.7052 C.ar      1 MOL         0.0000
     12 C12         0.4008   -3.3366   -0.1231 C.ar      1 MOL         0.0000
     13 C13         0.3033   -4.9945   -1.6833 C.2       1 MOL         0.0000
     14 C14         0.6440   -5.6207   -0.3620 C.2       1 MOL         0.0000
     15 C15         0.1687   -5.6938   -2.8117 C.2       1 MOL         0.0000
     16 C16        -3.2136   -4.2498   -6.0999 C.2       1 MOL         0.0000
     17 N1          0.6826   -4.5427    0.5281 N.am      1 MOL         0.0000
     18 O1         -4.1354   -4.6198   -5.2801 O.co2     1 MOL         0.0000
     19 O2          0.8372   -6.8024   -0.1432 O.2       1 MOL         0.0000
     20 O3         -3.4775   -3.7389   -7.2523 O.co2     1 MOL         0.0000
     21 H1         -0.4282   -0.3694   -2.4102 H         1 MOL         0.0000
     22 H2          0.0012    0.0003   -0.0007 H         1 MOL         0.0000
     23 H3          1.3417   -3.8809   -6.8751 H         1 MOL         0.0000
     24 H4         -0.3291   -2.6545   -3.3823 H         1 MOL         0.0000
     25 H5          1.9078   -4.8533   -4.6791 H         1 MOL         0.0000
     26 H6         -1.0211   -3.5956   -7.5433 H         1 MOL         0.0000
     27 H7          0.5403   -1.9161    1.4974 H         1 MOL         0.0000
     28 H8         -2.2895   -5.2720   -3.7894 H         1 MOL         0.0000
     29 H9          0.2882   -6.7757   -2.7526 H         1 MOL         0.0000
     30 H10         0.8882   -4.6244    1.5170 H         1 MOL         0.0000
@<TRIPOS>BOND
     1    1    2 ar
     2    1    4 ar
     3    2    7 ar
     4    3    5 ar
     5    3    6 ar
     6    4    9 ar
     7    5   10 ar
     8    6   11 ar
     9    7   12 ar
    10    8   10 ar
    11    8   11 ar
    12    9   12 ar
    13    9   13 1
    14   10   15 1
    15   11   16 1
    16   12   17 1
    17   13   14 1
    18   13   15 2
    19   14   17 am
    20   14   19 2
    21   16   18 1
    22   16   20 2
    23    1   21 1
    24    2   22 1
    25    3   23 1
    26    4   24 1
    27    5   25 1
    28    6   26 1
    29    7   27 1
    30    8   28 1
    31   15   29 1
    32   17   30 1
