@<TRIPOS>MOLECULE
AVX17478_0
   38    40     0     0     0
SMALL
NO_CHARGES

@<TRIPOS>ATOM
      1 C1         -2.6012   -3.8484    3.0930 C.ar      1 MOL         0.0000
      2 C2         -1.8909   -3.1529    4.0695 C.ar      1 MOL         0.0000
      3 C3         -2.9825   -3.2210    1.9014 C.ar      1 MOL         0.0000
      4 C4         -1.5397   -1.8122    3.8877 C.ar      1 MOL         0.0000
      5 C5         -2.6397   -1.8699    1.6957 C.ar      1 MOL         0.0000
      6 C6         -2.8559   -0.9420    0.6387 C.2       1 MOL         0.0000
      7 C7         -1.9277   -1.1980    2.6916 C.ar      1 MOL         0.0000
      8 C8         -2.2819    0.2530    1.0067 C.2       1 MOL         0.0000
      9 C9         -3.5925   -1.2236   -0.6655 C.2       1 MOL         0.0000
     10 C10        -2.2342    1.5082    0.2662 C.2       1 MOL         0.0000
     11 C11        -0.0314    0.7682   -0.8025 C.3       1 MOL         0.0000
     12 C12        -0.9908    2.9802   -1.2944 C.3       1 MOL         0.0000
     13 C13         0.1583    0.4927   -2.2869 C.3       1 MOL         0.0000
     14 C14        -0.8103    2.7493   -2.7885 C.3       1 MOL         0.0000
     15 C15         0.6394    1.6063   -4.4706 C.3       1 MOL         0.0000
     16 N1         -1.7244    0.0887    2.2463 N.pl3     1 MOL         0.0000
     17 N2         -1.1396    1.7077   -0.5886 N.am      1 MOL         0.0000
     18 N3          0.3547    1.8089   -3.0089 N.4       1 MOL         0.0000
     19 O1         -3.6820   -0.2659   -1.4849 O.co2     1 MOL         0.0000
     20 O2         -4.0519   -2.3909   -0.8172 O.co2     1 MOL         0.0000
     21 O3         -3.1413    2.3268    0.4130 O.2       1 MOL         0.0000
     22 H1         -2.8630   -4.8902    3.2575 H         1 MOL         0.0000
     23 H2         -1.6046   -3.6594    4.9874 H         1 MOL         0.0000
     24 H3         -3.5366   -3.7767    1.1502 H         1 MOL         0.0000
     25 H4         -0.9874   -1.2716    4.6487 H         1 MOL         0.0000
     26 H5         -0.1948   -0.1759   -0.2773 H         1 MOL         0.0000
     27 H6          0.8693    1.2253   -0.3751 H         1 MOL         0.0000
     28 H7         -0.1166    3.4900   -0.8721 H         1 MOL         0.0000
     29 H8         -1.8591    3.6239   -1.1236 H         1 MOL         0.0000
     30 H9          1.0512   -0.1160   -2.4614 H         1 MOL         0.0000
     31 H10        -0.7183    0.0048   -2.7276 H         1 MOL         0.0000
     32 H11        -1.6955    2.2847   -3.2373 H         1 MOL         0.0000
     33 H12        -0.5805    3.6872   -3.3040 H         1 MOL         0.0000
     34 H13        -0.2355    1.1315   -4.9185 H         1 MOL         0.0000
     35 H14         0.8244    2.5865   -4.9140 H         1 MOL         0.0000
     36 H15         1.5193    0.9654   -4.5539 H         1 MOL         0.0000
     37 H16        -1.2334    0.8058    2.7625 H         1 MOL         0.0000
     38 H17         1.1900    2.2564   -2.6073 H         1 MOL         0.0000
@<TRIPOS>BOND
     1    1    2 ar
     2    1    3 ar
     3    2    4 ar
     4    3    5 ar
     5    4    7 ar
     6    5    6 1
     7    5    7 ar
     8    6    8 2
     9    6    9 1
    10    7   16 1
    11    8   10 1
    12    8   16 1
    13    9   19 1
    14    9   20 2
    15   10   17 am
    16   10   21 2
    17   11   13 1
    18   11   17 1
    19   12   14 1
    20   12   17 1
    21   13   18 1
    22   14   18 1
    23   15   18 1
    24    1   22 1
    25    2   23 1
    26    3   24 1
    27    4   25 1
    28   11   26 1
    29   11   27 1
    30   12   28 1
    31   12   29 1
    32   13   30 1
    33   13   31 1
    34   14   32 1
    35   14   33 1
    36   15   34 1
    37   15   35 1
    38   15   36 1
    39   16   37 1
    40   18   38 1
