@<TRIPOS>MOLECULE
AVX17267_0
   39    41     0     0     0
SMALL
NO_CHARGES

@<TRIPOS>ATOM
      1 C1          7.7152    3.6197   -1.3895 C.ar      1 MOL         0.0000
      2 C2         -0.6321    4.6104    0.4523 C.ar      1 MOL         0.0000
      3 C3          7.0396    4.1013   -2.5108 C.ar      1 MOL         0.0000
      4 C4         -1.4774    4.5235   -0.6691 C.ar      1 MOL         0.0000
      5 C5          7.0636    3.5532   -0.1579 C.ar      1 MOL         0.0000
      6 C6          0.7429    4.3832    0.3340 C.ar      1 MOL         0.0000
      7 C7          5.7125    4.5164   -2.4006 C.ar      1 MOL         0.0000
      8 C8         -0.9629    4.2071   -1.9277 C.ar      1 MOL         0.0000
      9 C9          5.7365    3.9683   -0.0477 C.ar      1 MOL         0.0000
     10 C10         1.2465    4.0743   -0.9160 C.ar      1 MOL         0.0000
     11 C11         5.0610    4.4499   -1.1690 C.ar      1 MOL         0.0000
     12 C12         0.3970    3.9877   -2.0169 C.ar      1 MOL         0.0000
     13 C13         2.4902    3.5256   -2.8568 C.2       1 MOL         0.0000
     14 C14         5.0803    3.8889    1.2504 C.2       1 MOL         0.0000
     15 C15         2.6539    3.7701   -1.3440 C.3       1 MOL         0.0000
     16 C16         6.0239    5.5387    4.3930 C.3       1 MOL         0.0000
     17 C17         3.6274    4.9056   -1.0784 C.3       1 MOL         0.0000
     18 C18         5.1767    4.6500    3.5075 C.3       1 MOL         0.0000
     19 N1          1.1299    3.6648   -3.1531 N.am      1 MOL         0.0000
     20 O1          3.3925    3.2596   -3.6362 O.2       1 MOL         0.0000
     21 O2          4.0658    3.2195    1.4797 O.2       1 MOL         0.0000
     22 O3          5.7276    4.6472    2.1861 O.3       1 MOL         0.0000
     23 H1          8.7486    3.2961   -1.4748 H         1 MOL         0.0000
     24 H2         -1.0550    4.8558    1.4230 H         1 MOL         0.0000
     25 H3          7.5476    4.1531   -3.4694 H         1 MOL         0.0000
     26 H4         -2.5425    4.7045   -0.5519 H         1 MOL         0.0000
     27 H5          7.6014    3.1770    0.7087 H         1 MOL         0.0000
     28 H6          1.3887    4.4469    1.2028 H         1 MOL         0.0000
     29 H7          5.1952    4.8895   -3.2805 H         1 MOL         0.0000
     30 H8         -1.6116    4.1385   -2.7933 H         1 MOL         0.0000
     31 H9          2.9901    2.8358   -0.8807 H         1 MOL         0.0000
     32 H10         7.0526    5.1713    4.4446 H         1 MOL         0.0000
     33 H11         6.0339    6.5655    4.0130 H         1 MOL         0.0000
     34 H12         5.6118    5.5785    5.4068 H         1 MOL         0.0000
     35 H13         3.4392    5.3327   -0.0852 H         1 MOL         0.0000
     36 H14         3.4542    5.7196   -1.7939 H         1 MOL         0.0000
     37 H15         4.1493    5.0230    3.4602 H         1 MOL         0.0000
     38 H16         5.1686    3.6243    3.8882 H         1 MOL         0.0000
     39 H17         0.7305    3.5456   -4.0766 H         1 MOL         0.0000
@<TRIPOS>BOND
     1    1    3 ar
     2    1    5 ar
     3    2    4 ar
     4    2    6 ar
     5    3    7 ar
     6    4    8 ar
     7    5    9 ar
     8    6   10 ar
     9    7   11 ar
    10    8   12 ar
    11    9   11 ar
    12    9   14 1
    13   10   12 ar
    14   10   15 1
    15   11   17 1
    16   12   19 1
    17   13   15 1
    18   13   19 am
    19   13   20 2
    20   14   21 2
    21   14   22 1
    22   15   17 1
    23   16   18 1
    24   18   22 1
    25    1   23 1
    26    2   24 1
    27    3   25 1
    28    4   26 1
    29    5   27 1
    30    6   28 1
    31    7   29 1
    32    8   30 1
    33   15   31 1
    34   16   32 1
    35   16   33 1
    36   16   34 1
    37   17   35 1
    38   17   36 1
    39   18   37 1
    40   18   38 1
    41   19   39 1
