@<TRIPOS>MOLECULE
AVX17259_0
   32    34     0     0     0
SMALL
NO_CHARGES

@<TRIPOS>ATOM
      1 C1          1.9972    0.7311   -0.3782 C.ar      1 MOL         0.0000
      2 C2          0.5931    0.8186   -0.3987 C.ar      1 MOL         0.0000
      3 C3          1.5771    6.7730    1.5146 C.ar      1 MOL         0.0000
      4 C4          1.6416    5.8994    2.6000 C.ar      1 MOL         0.0000
      5 C5          2.7884    1.7677   -0.8842 C.ar      1 MOL         0.0000
      6 C6          2.2216    6.4503    0.3203 C.ar      1 MOL         0.0000
      7 C7         -0.0442    1.9431   -0.9260 C.ar      1 MOL         0.0000
      8 C8          2.9953    4.3805    1.2971 C.ar      1 MOL         0.0000
      9 C9          2.3507    4.7032    2.4913 C.ar      1 MOL         0.0000
     10 C10         2.1510    2.8803   -1.4012 C.ar      1 MOL         0.0000
     11 C11         2.9308    5.2541    0.2116 C.ar      1 MOL         0.0000
     12 C12         0.7597    2.9514   -1.4186 C.ar      1 MOL         0.0000
     13 C13         1.4574    4.9316   -2.3632 C.2       1 MOL         0.0000
     14 C14         2.4194    3.7812    3.6364 C.2       1 MOL         0.0000
     15 C15         2.7241    4.1246   -2.0173 C.3       1 MOL         0.0000
     16 C16         3.6274    4.9056   -1.0784 C.3       1 MOL         0.0000
     17 N1          0.3566    4.1555   -1.9844 N.am      1 MOL         0.0000
     18 O1          3.0805    2.6832    3.5094 O.co2     1 MOL         0.0000
     19 O2          1.4382    6.0411   -2.8742 O.2       1 MOL         0.0000
     20 O3          1.8158    4.1023    4.7279 O.co2     1 MOL         0.0000
     21 H1          2.4718   -0.1550    0.0350 H         1 MOL         0.0000
     22 H2         -0.0001    0.0002    0.0004 H         1 MOL         0.0000
     23 H3          1.0246    7.7042    1.5995 H         1 MOL         0.0000
     24 H4          1.1354    6.1602    3.5259 H         1 MOL         0.0000
     25 H5          3.8701    1.6925   -0.8700 H         1 MOL         0.0000
     26 H6          2.1658    7.1369   -0.5202 H         1 MOL         0.0000
     27 H7         -1.1257    2.0131   -0.9441 H         1 MOL         0.0000
     28 H8          3.5485    3.4482    1.2108 H         1 MOL         0.0000
     29 H9          3.2367    3.8746   -2.9528 H         1 MOL         0.0000
     30 H10         3.9711    5.8242   -1.5708 H         1 MOL         0.0000
     31 H11         4.5322    4.3233   -0.8622 H         1 MOL         0.0000
     32 H12        -0.6096    4.4350   -2.1067 H         1 MOL         0.0000
@<TRIPOS>BOND
     1    1    2 ar
     2    1    5 ar
     3    2    7 ar
     4    3    4 ar
     5    3    6 ar
     6    4    9 ar
     7    5   10 ar
     8    6   11 ar
     9    7   12 ar
    10    8    9 ar
    11    8   11 ar
    12    9   14 1
    13   10   12 ar
    14   10   15 1
    15   11   16 1
    16   12   17 1
    17   13   15 1
    18   13   17 am
    19   13   19 2
    20   14   18 1
    21   14   20 2
    22   15   16 1
    23    1   21 1
    24    2   22 1
    25    3   23 1
    26    4   24 1
    27    5   25 1
    28    6   26 1
    29    7   27 1
    30    8   28 1
    31   15   29 1
    32   16   30 1
    33   16   31 1
    34   17   32 1
