AVX17684_0
  -OEChem-04011314553D

 54 58  0     1  0  0  0  0  0999 V2000
    4.0924    0.8181   -4.4391 C   0  0  0  0  0  0  0  0  0  0  0  0
   -0.9129    0.8768    2.8543 C   0  0  0  0  0  0  0  0  0  0  0  0
   -1.8109    1.5847    2.0580 C   0  0  0  0  0  0  0  0  0  0  0  0
    3.0575   -0.0370   -4.8176 C   0  0  0  0  0  0  0  0  0  0  0  0
    4.5680    0.7999   -3.1279 C   0  0  0  0  0  0  0  0  0  0  0  0
    0.1514    0.1930    2.2689 C   0  0  0  0  0  0  0  0  0  0  0  0
   -1.6448    1.6171    0.6725 C   0  0  0  0  0  0  0  0  0  0  0  0
    2.4981   -0.9103   -3.8848 C   0  0  0  0  0  0  0  0  0  0  0  0
    4.0085   -0.0734   -2.1952 C   0  0  0  0  0  0  0  0  0  0  0  0
   -2.6731   -2.7598   -3.4841 C   0  0  0  0  0  0  0  0  0  0  0  0
   -2.8317   -3.6606   -4.5400 C   0  0  0  0  0  0  0  0  0  0  0  0
    0.3121    0.2117    0.8783 C   0  0  0  0  0  0  0  0  0  0  0  0
   -1.8970   -1.0341   -5.0163 C   0  0  0  0  0  0  0  0  0  0  0  0
   -0.5790    0.9389    0.0662 C   0  0  0  0  0  0  0  0  0  0  0  0
    2.9735   -0.9285   -2.5736 C   0  0  0  0  0  0  0  0  0  0  0  0
   -2.2086   -1.4541   -3.7209 C   0  0  0  0  0  0  0  0  0  0  0  0
   -2.5170   -3.2209   -5.8094 C   0  0  0  0  0  0  0  0  0  0  0  0
   -2.0623   -1.9429   -6.0413 C   0  0  0  0  0  0  0  0  0  0  0  0
    1.4688   -0.5195    0.3002 C   0  0  0  0  0  0  0  0  0  0  0  0
   -1.4100    0.3273   -5.2907 C   0  0  0  0  0  0  0  0  0  0  0  0
   -0.4028    1.0007   -1.4264 C   0  0  0  0  0  0  0  0  0  0  0  0
   -0.0811   -1.5198   -1.4068 C   0  0  0  0  0  0  0  0  0  0  0  0
   -2.1596   -2.9919   -7.9312 C   0  0  0  0  0  0  0  0  0  0  0  0
    2.3717   -1.8681   -1.5691 C   0  0  0  0  0  0  0  0  0  0  0  0
   -2.0549   -0.5234   -2.5542 C   0  0  0  0  0  0  0  0  0  0  0  0
    1.2500   -1.2662   -0.8644 N   0  0  0  0  0  0  0  0  0  0  0  0
   -0.6200   -0.3174   -2.1491 N   0  3  1  0  0  0  0  0  0  0  0  0
   -2.2682    1.2525   -5.5483 O   0  5  0  0  0  0  0  0  0  0  0  0
    2.5525   -0.4087    0.8716 O   0  0  0  0  0  0  0  0  0  0  0  0
   -0.1415    0.5490   -5.2646 O   0  0  0  0  0  0  0  0  0  0  0  0
   -2.6085   -3.9524   -6.9533 O   0  0  0  0  0  0  0  0  0  0  0  0
   -1.8119   -1.7143   -7.3592 O   0  0  0  0  0  0  0  0  0  0  0  0
    4.5289    1.4971   -5.1658 H   0  0  0  0  0  0  0  0  0  0  0  0
   -1.0430    0.8573    3.9324 H   0  0  0  0  0  0  0  0  0  0  0  0
   -2.6399    2.1159    2.5166 H   0  0  0  0  0  0  0  0  0  0  0  0
    2.6879   -0.0238   -5.8388 H   0  0  0  0  0  0  0  0  0  0  0  0
    5.3744    1.4648   -2.8332 H   0  0  0  0  0  0  0  0  0  0  0  0
    0.8393   -0.3577    2.9052 H   0  0  0  0  0  0  0  0  0  0  0  0
   -2.3530    2.1803    0.0696 H   0  0  0  0  0  0  0  0  0  0  0  0
    1.6919   -1.5729   -4.1886 H   0  0  0  0  0  0  0  0  0  0  0  0
    4.3853   -0.0805   -1.1758 H   0  0  0  0  0  0  0  0  0  0  0  0
   -2.9139   -3.0787   -2.4728 H   0  0  0  0  0  0  0  0  0  0  0  0
   -3.1897   -4.6681   -4.3618 H   0  0  0  0  0  0  0  0  0  0  0  0
   -1.0682    1.7394   -1.8886 H   0  0  0  0  0  0  0  0  0  0  0  0
    0.6193    1.3208   -1.6654 H   0  0  0  0  0  0  0  0  0  0  0  0
   -0.0527   -2.3560   -2.1139 H   0  0  0  0  0  0  0  0  0  0  0  0
   -0.7779   -1.7572   -0.5950 H   0  0  0  0  0  0  0  0  0  0  0  0
   -1.2799   -3.3979   -8.4436 H   0  0  0  0  0  0  0  0  0  0  0  0
   -2.9577   -2.8413   -8.6673 H   0  0  0  0  0  0  0  0  0  0  0  0
    2.0120   -2.7792   -2.0596 H   0  0  0  0  0  0  0  0  0  0  0  0
    3.1124   -2.1718   -0.8219 H   0  0  0  0  0  0  0  0  0  0  0  0
   -2.4629    0.4673   -2.7815 H   0  0  0  0  0  0  0  0  0  0  0  0
   -2.5791   -0.9057   -1.6716 H   0  0  0  0  0  0  0  0  0  0  0  0
   -0.0826   -0.2516   -3.0240 H   0  0  0  0  0  0  0  0  0  0  0  0
  1  4  2  0  0  0  0
  1  5  1  0  0  0  0
  2  3  2  0  0  0  0
  2  6  1  0  0  0  0
  3  7  1  0  0  0  0
  4  8  1  0  0  0  0
  5  9  2  0  0  0  0
  6 12  2  0  0  0  0
  7 14  2  0  0  0  0
  8 15  2  0  0  0  0
  9 15  1  0  0  0  0
 10 11  1  0  0  0  0
 10 16  2  0  0  0  0
 11 17  2  0  0  0  0
 12 14  1  0  0  0  0
 12 19  1  0  0  0  0
 13 16  1  0  0  0  0
 13 18  2  0  0  0  0
 13 20  1  0  0  0  0
 14 21  1  0  0  0  0
 15 24  1  0  0  0  0
 16 25  1  0  0  0  0
 17 18  1  0  0  0  0
 17 31  1  0  0  0  0
 18 32  1  0  0  0  0
 19 26  1  0  0  0  0
 19 29  2  0  0  0  0
 20 28  1  0  0  0  0
 20 30  2  0  0  0  0
 21 27  1  0  0  0  0
 22 26  1  0  0  0  0
 22 27  1  0  0  0  0
 23 31  1  0  0  0  0
 23 32  1  0  0  0  0
 24 26  1  0  0  0  0
 25 27  1  0  0  0  0
  1 33  1  0  0  0  0
  2 34  1  0  0  0  0
  3 35  1  0  0  0  0
  4 36  1  0  0  0  0
  5 37  1  0  0  0  0
  6 38  1  0  0  0  0
  7 39  1  0  0  0  0
  8 40  1  0  0  0  0
  9 41  1  0  0  0  0
 10 42  1  0  0  0  0
 11 43  1  0  0  0  0
 21 44  1  0  0  0  0
 21 45  1  0  0  0  0
 22 46  1  0  0  0  0
 22 47  1  0  0  0  0
 23 48  1  0  0  0  0
 23 49  1  0  0  0  0
 24 50  1  0  0  0  0
 24 51  1  0  0  0  0
 25 52  1  0  0  0  0
 25 53  1  0  0  0  0
 27 54  1  0  0  0  0
M  CHG  2  27   1  28  -1
M  END
$$$$
