@<TRIPOS>MOLECULE
AVX101139_1
   57    59     0     0     0
SMALL
NO_CHARGES

@<TRIPOS>ATOM
      1 C1          8.1437   -0.1650   -2.7701 C.ar      1 MOL         0.0000
      2 C2          6.9748   -0.6162   -3.3830 C.ar      1 MOL         0.0000
      3 C3          8.0921    0.3847   -1.4891 C.ar      1 MOL         0.0000
      4 C4          5.7543   -0.5178   -2.7150 C.ar      1 MOL         0.0000
      5 C5          6.8715    0.4831   -0.8211 C.ar      1 MOL         0.0000
      6 C6          3.1672    4.7912   -0.2976 C.ar      1 MOL         0.0000
      7 C7          2.9296    6.0378   -0.8766 C.ar      1 MOL         0.0000
      8 C8          4.7667    4.2882   -2.0370 C.ar      1 MOL         0.0000
      9 C9          5.7026    0.0319   -1.4340 C.ar      1 MOL         0.0000
     10 C10         4.0859    3.9165   -0.8778 C.ar      1 MOL         0.0000
     11 C11         3.6104    6.4095   -2.0358 C.ar      1 MOL         0.0000
     12 C12         4.5291    5.5348   -2.6161 C.ar      1 MOL         0.0000
     13 C13         5.7383    3.3641   -2.6554 C.2       1 MOL         0.0000
     14 C14         5.4920    6.0784   -6.0983 C.2       1 MOL         0.0000
     15 C15         1.7037    1.3224   -3.2188 C.3       1 MOL         0.0000
     16 C16         0.5873    0.6856   -4.0196 C.3       1 MOL         0.0000
     17 C17         0.0426    0.5394   -1.7591 C.3       1 MOL         0.0000
     18 C18         1.5537    0.6312   -1.8811 C.3       1 MOL         0.0000
     19 C19         2.4146    8.4627   -1.9340 C.3       1 MOL         0.0000
     20 C20         4.3901    0.1383   -0.7151 C.3       1 MOL         0.0000
     21 C21         4.3210    2.5824   -0.2327 C.3       1 MOL         0.0000
     22 C22         4.5760    5.5775   -4.9934 C.3       1 MOL         0.0000
     23 C23         2.2175    1.3584   -0.7275 C.3       1 MOL         0.0000
     24 N1          3.6737    1.4411   -0.9808 N.4       1 MOL         0.0000
     25 O1          6.9679    3.4266   -2.2853 O.co2     1 MOL         0.0000
     26 O2          6.6596    5.5960   -6.0864 O.co2     1 MOL         0.0000
     27 O3          5.3182    2.5321   -3.5408 O.co2     1 MOL         0.0000
     28 O4          4.9686    6.9084   -6.8932 O.co2     1 MOL         0.0000
     29 O5         -0.4638    0.3757   -3.0928 O.3       1 MOL         0.0000
     30 O6          3.3684    7.6301   -2.5906 O.3       1 MOL         0.0000
     31 O7          5.1902    5.9064   -3.7500 O.3       1 MOL         0.0000
     32 H1          9.0942   -0.2429   -3.2898 H         1 MOL         0.0000
     33 H2          7.0150   -1.0452   -4.3800 H         1 MOL         0.0000
     34 H3          9.0021    0.7351   -1.0111 H         1 MOL         0.0000
     35 H4          4.8486   -0.8718   -3.2005 H         1 MOL         0.0000
     36 H5          6.8409    0.9129    0.1767 H         1 MOL         0.0000
     37 H6          2.6319    4.5108    0.6057 H         1 MOL         0.0000
     38 H7          2.2129    6.7148   -0.4197 H         1 MOL         0.0000
     39 H8          2.6858    1.1819   -3.6787 H         1 MOL         0.0000
     40 H9          1.5237    2.3998   -3.1194 H         1 MOL         0.0000
     41 H10         0.2048    1.3441   -4.8044 H         1 MOL         0.0000
     42 H11         0.9142   -0.2534   -4.4792 H         1 MOL         0.0000
     43 H12        -0.2768   -0.3061   -1.1426 H         1 MOL         0.0000
     44 H13        -0.3959    1.4554   -1.3478 H         1 MOL         0.0000
     45 H14         1.9692   -0.3822   -1.9592 H         1 MOL         0.0000
     46 H15         2.3163    9.4050   -2.4785 H         1 MOL         0.0000
     47 H16         2.7414    8.6543   -0.9088 H         1 MOL         0.0000
     48 H17         1.4489    7.9519   -1.9170 H         1 MOL         0.0000
     49 H18         3.7073   -0.6633   -1.0167 H         1 MOL         0.0000
     50 H19         4.5266    0.0699    0.3696 H         1 MOL         0.0000
     51 H20         5.3906    2.3538   -0.1745 H         1 MOL         0.0000
     52 H21         3.9189    2.5592    0.7858 H         1 MOL         0.0000
     53 H22         4.4568    4.4919   -5.0625 H         1 MOL         0.0000
     54 H23         3.5914    6.0524   -5.0427 H         1 MOL         0.0000
     55 H24         2.0827    0.8230    0.2148 H         1 MOL         0.0000
     56 H25         1.8470    2.3814   -0.6323 H         1 MOL         0.0000
     57 H26         3.8141    1.6421   -1.9868 H         1 MOL         0.0000
@<TRIPOS>BOND
     1    1    2 ar
     2    1    3 ar
     3    2    4 ar
     4    3    5 ar
     5    4    9 ar
     6    5    9 ar
     7    6    7 ar
     8    6   10 ar
     9    7   11 ar
    10    8   10 ar
    11    8   12 ar
    12    8   13 1
    13    9   20 1
    14   10   21 1
    15   11   12 ar
    16   11   30 1
    17   12   31 1
    18   13   25 1
    19   13   27 2
    20   14   22 1
    21   14   26 1
    22   14   28 2
    23   15   16 1
    24   15   18 1
    25   16   29 1
    26   17   18 1
    27   17   29 1
    28   18   23 1
    29   19   30 1
    30   20   24 1
    31   21   24 1
    32   22   31 1
    33   23   24 1
    34    1   32 1
    35    2   33 1
    36    3   34 1
    37    4   35 1
    38    5   36 1
    39    6   37 1
    40    7   38 1
    41   15   39 1
    42   15   40 1
    43   16   41 1
    44   16   42 1
    45   17   43 1
    46   17   44 1
    47   18   45 1
    48   19   46 1
    49   19   47 1
    50   19   48 1
    51   20   49 1
    52   20   50 1
    53   21   51 1
    54   21   52 1
    55   22   53 1
    56   22   54 1
    57   23   55 1
    58   23   56 1
    59   24   57 1
