AVX17386_0
  -OEChem-04011314533D

 33 35  0     0  0  0  0  0  0999 V2000
    2.6936    4.7136    1.2226 C   0  0  0  0  0  0  0  0  0  0  0  0
    3.3924    4.6570    0.0183 C   0  0  0  0  0  0  0  0  0  0  0  0
    2.1798    3.5508    1.8080 C   0  0  0  0  0  0  0  0  0  0  0  0
    3.5999    3.4405   -0.6381 C   0  0  0  0  0  0  0  0  0  0  0  0
    2.3765    2.3127    1.1646 C   0  0  0  0  0  0  0  0  0  0  0  0
    2.0060    0.9712    1.4614 C   0  0  0  0  0  0  0  0  0  0  0  0
    3.0806    2.2862   -0.0412 C   0  0  0  0  0  0  0  0  0  0  0  0
    2.4831    0.1713    0.4488 C   0  0  0  0  0  0  0  0  0  0  0  0
    1.2204    0.5067    2.6821 C   0  0  0  0  0  0  0  0  0  0  0  0
    2.3618   -1.2844    0.2932 C   0  0  0  0  0  0  0  0  0  0  0  0
    4.5389   -1.6151    1.5775 C   0  0  0  0  0  0  0  0  0  0  0  0
    3.3211   -3.5373    0.6363 C   0  0  0  0  0  0  0  0  0  0  0  0
    4.7303   -2.4320    2.8498 C   0  0  0  0  0  0  0  0  0  0  0  0
    3.5544   -4.2667    1.9513 C   0  0  0  0  0  0  0  0  0  0  0  0
    3.1300    0.9734   -0.4526 N   0  0  0  0  0  0  0  0  0  0  0  0
    3.3610   -2.0903    0.8415 N   0  0  0  0  0  0  0  0  0  0  0  0
    0.9877   -0.7321    2.7694 O   0  5  0  0  0  0  0  0  0  0  0  0
    0.8679    1.3997    3.5036 O   0  0  0  0  0  0  0  0  0  0  0  0
    1.3759   -1.6865   -0.3231 O   0  0  0  0  0  0  0  0  0  0  0  0
    4.7786   -3.8284    2.5467 O   0  0  0  0  0  0  0  0  0  0  0  0
    2.5448    5.6715    1.7139 H   0  0  0  0  0  0  0  0  0  0  0  0
    3.7830    5.5721   -0.4187 H   0  0  0  0  0  0  0  0  0  0  0  0
    1.6366    3.6117    2.7468 H   0  0  0  0  0  0  0  0  0  0  0  0
    4.1435    3.3976   -1.5757 H   0  0  0  0  0  0  0  0  0  0  0  0
    4.4701   -0.5526    1.8218 H   0  0  0  0  0  0  0  0  0  0  0  0
    5.3962   -1.7547    0.9083 H   0  0  0  0  0  0  0  0  0  0  0  0
    4.1229   -3.7725   -0.0736 H   0  0  0  0  0  0  0  0  0  0  0  0
    2.3714   -3.8472    0.1904 H   0  0  0  0  0  0  0  0  0  0  0  0
    5.6743   -2.1597    3.3320 H   0  0  0  0  0  0  0  0  0  0  0  0
    3.9218   -2.2469    3.5672 H   0  0  0  0  0  0  0  0  0  0  0  0
    2.7299   -4.0998    2.6546 H   0  0  0  0  0  0  0  0  0  0  0  0
    3.6323   -5.3441    1.7757 H   0  0  0  0  0  0  0  0  0  0  0  0
    3.5803    0.6517   -1.2985 H   0  0  0  0  0  0  0  0  0  0  0  0
  1  2  2  0  0  0  0
  1  3  1  0  0  0  0
  2  4  1  0  0  0  0
  3  5  2  0  0  0  0
  4  7  2  0  0  0  0
  5  6  1  0  0  0  0
  5  7  1  0  0  0  0
  6  8  2  0  0  0  0
  6  9  1  0  0  0  0
  7 15  1  0  0  0  0
  8 10  1  0  0  0  0
  8 15  1  0  0  0  0
  9 17  1  0  0  0  0
  9 18  2  0  0  0  0
 10 16  1  0  0  0  0
 10 19  2  0  0  0  0
 11 13  1  0  0  0  0
 11 16  1  0  0  0  0
 12 14  1  0  0  0  0
 12 16  1  0  0  0  0
 13 20  1  0  0  0  0
 14 20  1  0  0  0  0
  1 21  1  0  0  0  0
  2 22  1  0  0  0  0
  3 23  1  0  0  0  0
  4 24  1  0  0  0  0
 11 25  1  0  0  0  0
 11 26  1  0  0  0  0
 12 27  1  0  0  0  0
 12 28  1  0  0  0  0
 13 29  1  0  0  0  0
 13 30  1  0  0  0  0
 14 31  1  0  0  0  0
 14 32  1  0  0  0  0
 15 33  1  0  0  0  0
M  CHG  1  17  -1
M  END
$$$$
