@<TRIPOS>MOLECULE
AVX17259_1
   32    34     0     0     0
SMALL
NO_CHARGES

@<TRIPOS>ATOM
      1 C1          1.7456    1.2722   -0.0364 C.ar      1 MOL         0.0000
      2 C2          0.3605    1.0247   -0.0319 C.ar      1 MOL         0.0000
      3 C3          0.1986    5.5234   -4.4818 C.ar      1 MOL         0.0000
      4 C4          0.5544    4.2983   -5.0459 C.ar      1 MOL         0.0000
      5 C5          2.2411    2.5795   -0.0765 C.ar      1 MOL         0.0000
      6 C6          0.7830    5.9359   -3.2843 C.ar      1 MOL         0.0000
      7 C7         -0.5529    2.0796   -0.0667 C.ar      1 MOL         0.0000
      8 C8          2.0788    3.8980   -3.2147 C.ar      1 MOL         0.0000
      9 C9          1.4944    3.4856   -4.4123 C.ar      1 MOL         0.0000
     10 C10         1.3310    3.6196   -0.1151 C.ar      1 MOL         0.0000
     11 C11         1.7230    5.1231   -2.6507 C.ar      1 MOL         0.0000
     12 C12        -0.0377    3.3597   -0.1063 C.ar      1 MOL         0.0000
     13 C13         0.1201    5.6550   -0.1898 C.2       1 MOL         0.0000
     14 C14         1.8699    2.1927   -5.0069 C.2       1 MOL         0.0000
     15 C15         1.5589    5.1040   -0.1489 C.3       1 MOL         0.0000
     16 C16         2.3543    5.5685   -1.3569 C.3       1 MOL         0.0000
     17 N1         -0.7446    4.5559   -0.1491 N.am      1 MOL         0.0000
     18 O1          2.7407    1.4617   -4.4017 O.co2     1 MOL         0.0000
     19 O2         -0.1888    6.8357   -0.2463 O.2       1 MOL         0.0000
     20 O3          1.3158    1.8347   -6.1130 O.co2     1 MOL         0.0000
     21 H1          2.4377    0.4346   -0.0071 H         1 MOL         0.0000
     22 H2          0.0006   -0.0002    0.0002 H         1 MOL         0.0000
     23 H3         -0.5332    6.1561   -4.9755 H         1 MOL         0.0000
     24 H4          0.0933    3.9866   -5.9795 H         1 MOL         0.0000
     25 H5          3.3096    2.7642   -0.0749 H         1 MOL         0.0000
     26 H6          0.4999    6.8919   -2.8522 H         1 MOL         0.0000
     27 H7         -1.6205    1.8925   -0.0630 H         1 MOL         0.0000
     28 H8          2.8120    3.2654   -2.7197 H         1 MOL         0.0000
     29 H9          2.0236    5.4313    0.7878 H         1 MOL         0.0000
     30 H10         3.3806    5.1845   -1.2969 H         1 MOL         0.0000
     31 H11         2.4410    6.6625   -1.3473 H         1 MOL         0.0000
     32 H12        -1.7563    4.6105   -0.1583 H         1 MOL         0.0000
@<TRIPOS>BOND
     1    1    2 ar
     2    1    5 ar
     3    2    7 ar
     4    3    4 ar
     5    3    6 ar
     6    4    9 ar
     7    5   10 ar
     8    6   11 ar
     9    7   12 ar
    10    8    9 ar
    11    8   11 ar
    12    9   14 1
    13   10   12 ar
    14   10   15 1
    15   11   16 1
    16   12   17 1
    17   13   15 1
    18   13   17 am
    19   13   19 2
    20   14   18 1
    21   14   20 2
    22   15   16 1
    23    1   21 1
    24    2   22 1
    25    3   23 1
    26    4   24 1
    27    5   25 1
    28    6   26 1
    29    7   27 1
    30    8   28 1
    31   15   29 1
    32   16   30 1
    33   16   31 1
    34   17   32 1
