@<TRIPOS>MOLECULE
AVX17482_3
   31    33     0     0     0
SMALL
NO_CHARGES

@<TRIPOS>ATOM
      1 C1          2.2812    1.1728   -0.9445 C.ar      1 MOL         0.0000
      2 C2          2.1152   -0.0863   -1.5408 C.ar      1 MOL         0.0000
      3 C3          1.2883    1.7046   -0.1203 C.ar      1 MOL         0.0000
      4 C4          0.9541   -0.8316   -1.3212 C.ar      1 MOL         0.0000
      5 C5         -4.6143   -3.8782    1.6393 C.2       1 MOL         0.0000
      6 C6          0.1458    0.9529    0.1025 C.ar      1 MOL         0.0000
      7 C7         -0.0234   -0.3057   -0.4903 C.ar      1 MOL         0.0000
      8 C8         -4.8922   -3.3112    0.4131 C.2       1 MOL         0.0000
      9 C9         -2.7425   -2.8843    0.4942 C.2       1 MOL         0.0000
     10 C10        -6.3008   -3.3078   -0.1897 C.2       1 MOL         0.0000
     11 C11        -1.0525    1.3347    0.9190 C.3       1 MOL         0.0000
     12 C12        -1.3674   -0.8830   -0.1311 C.3       1 MOL         0.0000
     13 C13        -1.7320   -0.0326    1.1107 C.3       1 MOL         0.0000
     14 C14        -1.3739   -2.3856    0.1123 C.3       1 MOL         0.0000
     15 N1         -3.8202   -2.7405   -0.2448 N.2       1 MOL         0.0000
     16 O1         -6.4257   -2.7582   -1.3166 O.co2     1 MOL         0.0000
     17 O2         -7.2046   -3.8546    0.4971 O.co2     1 MOL         0.0000
     18 O3         -1.2353   -0.6403    2.3037 O.3       1 MOL         0.0000
     19 S1         -2.9458   -3.6968    1.9920 S.3       1 MOL         0.0000
     20 H1          3.1883    1.7409   -1.1319 H         1 MOL         0.0000
     21 H2          2.8953   -0.4814   -2.1859 H         1 MOL         0.0000
     22 H3          1.4130    2.6827    0.3318 H         1 MOL         0.0000
     23 H4          0.8292   -1.7967   -1.8000 H         1 MOL         0.0000
     24 H5         -5.2858   -4.3751    2.3253 H         1 MOL         0.0000
     25 H6         -0.7632    1.7944    1.8687 H         1 MOL         0.0000
     26 H7         -1.6848    2.0132    0.3371 H         1 MOL         0.0000
     27 H8         -2.0602   -0.6393   -0.9444 H         1 MOL         0.0000
     28 H9         -2.8161    0.0710    1.2272 H         1 MOL         0.0000
     29 H10        -0.6556   -2.6349    0.9022 H         1 MOL         0.0000
     30 H11        -1.0280   -2.9071   -0.7880 H         1 MOL         0.0000
     31 H12        -1.4541   -0.0369    3.0296 H         1 MOL         0.0000
@<TRIPOS>BOND
     1    1    2 ar
     2    1    3 ar
     3    2    4 ar
     4    3    6 ar
     5    4    7 ar
     6    5    8 2
     7    5   19 1
     8    6    7 ar
     9    6   11 1
    10    7   12 1
    11    8   10 1
    12    8   15 1
    13    9   14 1
    14    9   15 2
    15    9   19 1
    16   10   16 1
    17   10   17 2
    18   11   13 1
    19   12   13 1
    20   12   14 1
    21   13   18 1
    22    1   20 1
    23    2   21 1
    24    3   22 1
    25    4   23 1
    26    5   24 1
    27   11   25 1
    28   11   26 1
    29   12   27 1
    30   13   28 1
    31   14   29 1
    32   14   30 1
    33   18   31 1
