@<TRIPOS>MOLECULE
AVX17385_0
   31    33     0     0     0
SMALL
NO_CHARGES

@<TRIPOS>ATOM
      1 C1         -9.4179    0.7988    2.4398 C.ar      1 MOL         0.0000
      2 C2         -0.7036    1.3640    1.5041 C.ar      1 MOL         0.0000
      3 C3         -9.1458    0.7644    3.8074 C.ar      1 MOL         0.0000
      4 C4         -8.5135    0.2438    1.5345 C.ar      1 MOL         0.0000
      5 C5         -0.7671    0.1975    0.7446 C.ar      1 MOL         0.0000
      6 C6         -1.6773    1.6439    2.4698 C.ar      1 MOL         0.0000
      7 C7         -7.9691    0.1750    4.2697 C.ar      1 MOL         0.0000
      8 C8         -7.3368   -0.3456    1.9968 C.ar      1 MOL         0.0000
      9 C9         -1.8022   -0.7245    0.9247 C.ar      1 MOL         0.0000
     10 C10        -2.7304    0.7292    2.6692 C.ar      1 MOL         0.0000
     11 C11        -3.8586    0.6897    3.5356 C.2       1 MOL         0.0000
     12 C12        -7.0646   -0.3800    3.3644 C.ar      1 MOL         0.0000
     13 C13        -2.7685   -0.4315    1.8936 C.ar      1 MOL         0.0000
     14 C14        -4.5471   -0.4724    3.2738 C.2       1 MOL         0.0000
     15 C15        -4.2387    1.7431    4.5682 C.2       1 MOL         0.0000
     16 C16        -5.7805   -1.0231    3.8682 C.3       1 MOL         0.0000
     17 N1         -3.8818   -1.1421    2.2822 N.pl3     1 MOL         0.0000
     18 O1         -5.2841    1.5249    5.2443 O.co2     1 MOL         0.0000
     19 O2         -3.4773    2.7475    4.6624 O.co2     1 MOL         0.0000
     20 H1        -10.3348    1.2566    2.0801 H         1 MOL         0.0000
     21 H2          0.1110    2.0659    1.3460 H         1 MOL         0.0000
     22 H3         -9.8504    1.1956    4.5125 H         1 MOL         0.0000
     23 H4         -8.7255    0.2694    0.4697 H         1 MOL         0.0000
     24 H5          0.0001   -0.0003    0.0002 H         1 MOL         0.0000
     25 H6         -1.6138    2.5579    3.0534 H         1 MOL         0.0000
     26 H7         -7.7653    0.1529    5.3371 H         1 MOL         0.0000
     27 H8         -6.6379   -0.7754    1.2841 H         1 MOL         0.0000
     28 H9         -1.8505   -1.6325    0.3330 H         1 MOL         0.0000
     29 H10        -5.7652   -0.9415    4.9749 H         1 MOL         0.0000
     30 H11        -5.8539   -2.1177    3.7005 H         1 MOL         0.0000
     31 H12        -4.1641   -2.0298    1.8895 H         1 MOL         0.0000
@<TRIPOS>BOND
     1    1    3 ar
     2    1    4 ar
     3    2    5 ar
     4    2    6 ar
     5    3    7 ar
     6    4    8 ar
     7    5    9 ar
     8    6   10 ar
     9    7   12 ar
    10    8   12 ar
    11    9   13 ar
    12   10   11 1
    13   10   13 ar
    14   11   14 2
    15   11   15 1
    16   12   16 1
    17   13   17 1
    18   14   16 1
    19   14   17 1
    20   15   18 1
    21   15   19 2
    22    1   20 1
    23    2   21 1
    24    3   22 1
    25    4   23 1
    26    5   24 1
    27    6   25 1
    28    7   26 1
    29    8   27 1
    30    9   28 1
    31   16   29 1
    32   16   30 1
    33   17   31 1
