AVX17369_0
  -OEChem-04011314523D

 35 37  0     1  0  0  0  0  0999 V2000
    2.6250   -0.3239    0.6896 C   0  0  0  0  0  0  0  0  0  0  0  0
    1.9389   -1.5361    0.8582 C   0  0  0  0  0  0  0  0  0  0  0  0
   -5.7387   -1.9800    0.9916 C   0  0  0  0  0  0  0  0  0  0  0  0
   -6.5651   -1.2610    0.1281 C   0  0  0  0  0  0  0  0  0  0  0  0
    1.9344    0.8425    0.3570 C   0  0  0  0  0  0  0  0  0  0  0  0
    0.5528   -1.5992    0.6959 C   0  0  0  0  0  0  0  0  0  0  0  0
   -4.3619   -2.0161    0.7706 C   0  0  0  0  0  0  0  0  0  0  0  0
   -4.6379   -0.6141   -1.1775 C   0  0  0  0  0  0  0  0  0  0  0  0
   -6.0147   -0.5781   -0.9564 C   0  0  0  0  0  0  0  0  0  0  0  0
    0.5615    0.7680    0.1856 C   0  0  0  0  0  0  0  0  0  0  0  0
   -0.1274   -0.4411    0.3516 C   0  0  0  0  0  0  0  0  0  0  0  0
   -3.8115   -1.3331   -0.3139 C   0  0  0  0  0  0  0  0  0  0  0  0
   -6.8862    0.1805   -1.8680 C   0  0  0  0  0  0  0  0  0  0  0  0
   -0.3792    1.8896   -0.1389 C   0  0  0  0  0  0  0  0  0  0  0  0
   -1.6076   -0.2363    0.1627 C   0  0  1  0  0  0  0  0  0  0  0  0
   -1.6244    1.1117   -0.5996 C   0  0  2  0  0  0  0  0  0  0  0  0
   -2.3252   -1.3721   -0.5528 C   0  0  0  0  0  0  0  0  0  0  0  0
   -6.3525    0.8024   -2.8616 O   0  5  0  0  0  0  0  0  0  0  0  0
   -8.1541    0.1979   -1.6423 O   0  0  0  0  0  0  0  0  0  0  0  0
   -1.5488    0.8969   -2.0093 O   0  0  0  0  0  0  0  0  0  0  0  0
    3.7026   -0.2933    0.8258 H   0  0  0  0  0  0  0  0  0  0  0  0
    2.4917   -2.4329    1.1245 H   0  0  0  0  0  0  0  0  0  0  0  0
   -6.1675   -2.5115    1.8361 H   0  0  0  0  0  0  0  0  0  0  0  0
   -7.6366   -1.2391    0.3096 H   0  0  0  0  0  0  0  0  0  0  0  0
    2.4647    1.7812    0.2371 H   0  0  0  0  0  0  0  0  0  0  0  0
    0.0305   -2.5385    0.8442 H   0  0  0  0  0  0  0  0  0  0  0  0
   -3.7257   -2.5787    1.4486 H   0  0  0  0  0  0  0  0  0  0  0  0
   -4.2073   -0.0820   -2.0226 H   0  0  0  0  0  0  0  0  0  0  0  0
   -0.5847    2.4633    0.7706 H   0  0  0  0  0  0  0  0  0  0  0  0
    0.0224    2.5380   -0.9232 H   0  0  0  0  0  0  0  0  0  0  0  0
   -2.0500   -0.0890    1.1544 H   0  0  0  0  0  0  0  0  0  0  0  0
   -2.5434    1.6751   -0.4066 H   0  0  0  0  0  0  0  0  0  0  0  0
   -1.9215   -2.3343   -0.2161 H   0  0  0  0  0  0  0  0  0  0  0  0
   -2.1220   -1.3178   -1.6289 H   0  0  0  0  0  0  0  0  0  0  0  0
   -1.5145    1.7746   -2.4186 H   0  0  0  0  0  0  0  0  0  0  0  0
  1  2  2  0  0  0  0
  1  5  1  0  0  0  0
  2  6  1  0  0  0  0
  3  4  1  0  0  0  0
  3  7  2  0  0  0  0
  4  9  2  0  0  0  0
  5 10  2  0  0  0  0
  6 11  2  0  0  0  0
  7 12  1  0  0  0  0
  8  9  1  0  0  0  0
  8 12  2  0  0  0  0
  9 13  1  0  0  0  0
 10 11  1  0  0  0  0
 10 14  1  0  0  0  0
 11 15  1  0  0  0  0
 12 17  1  0  0  0  0
 13 18  1  0  0  0  0
 13 19  2  0  0  0  0
 14 16  1  0  0  0  0
 15 16  1  0  0  0  0
 15 17  1  0  0  0  0
 16 20  1  0  0  0  0
  1 21  1  0  0  0  0
  2 22  1  0  0  0  0
  3 23  1  0  0  0  0
  4 24  1  0  0  0  0
  5 25  1  0  0  0  0
  6 26  1  0  0  0  0
  7 27  1  0  0  0  0
  8 28  1  0  0  0  0
 14 29  1  0  0  0  0
 14 30  1  0  0  0  0
 15 31  1  0  0  0  0
 16 32  1  0  0  0  0
 17 33  1  0  0  0  0
 17 34  1  0  0  0  0
 20 35  1  0  0  0  0
M  CHG  1  18  -1
M  END
$$$$
