AVX17687_1
  -OEChem-04011314553D

 58 62  0     1  0  0  0  0  0999 V2000
    2.0711   -0.3869    2.3041 C   0  0  0  0  0  0  0  0  0  0  0  0
    0.9615   -1.0456    2.8299 C   0  0  0  0  0  0  0  0  0  0  0  0
    2.0584    0.0589    0.9834 C   0  0  0  0  0  0  0  0  0  0  0  0
   -0.1641   -1.2672    2.0349 C   0  0  0  0  0  0  0  0  0  0  0  0
   -5.1219    0.7419   -1.1806 C   0  0  0  0  0  0  0  0  0  0  0  0
   -1.4300   -0.7033   -4.1042 C   0  0  0  0  0  0  0  0  0  0  0  0
   -2.5823    1.4202   -4.1005 C   0  0  0  0  0  0  0  0  0  0  0  0
   -6.1761    1.4482   -1.7647 C   0  0  0  0  0  0  0  0  0  0  0  0
   -2.5307   -1.2995   -4.7194 C   0  0  0  0  0  0  0  0  0  0  0  0
   -3.6830    0.8240   -4.7158 C   0  0  0  0  0  0  0  0  0  0  0  0
    0.9252   -0.1492    0.1881 C   0  0  0  0  0  0  0  0  0  0  0  0
   -4.6637    2.5930    0.3332 C   0  0  0  0  0  0  0  0  0  0  0  0
   -0.1944   -0.8293    0.7041 C   0  0  0  0  0  0  0  0  0  0  0  0
   -1.4558    0.6566   -3.7947 C   0  0  0  0  0  0  0  0  0  0  0  0
   -4.3701    1.3109   -0.1377 C   0  0  0  0  0  0  0  0  0  0  0  0
   -6.4455    2.7122   -1.2814 C   0  0  0  0  0  0  0  0  0  0  0  0
   -5.7096    3.2692   -0.2605 C   0  0  0  0  0  0  0  0  0  0  0  0
   -3.6572   -0.5359   -5.0252 C   0  0  0  0  0  0  0  0  0  0  0  0
    0.9623    0.3300   -1.2176 C   0  0  0  0  0  0  0  0  0  0  0  0
   -3.8927    3.2105    1.4241 C   0  0  0  0  0  0  0  0  0  0  0  0
   -1.4078   -1.0930   -0.1449 C   0  0  0  0  0  0  0  0  0  0  0  0
   -1.3156    1.3373   -0.8810 C   0  0  0  0  0  0  0  0  0  0  0  0
   -7.2277    4.6866   -0.8673 C   0  0  0  0  0  0  0  0  0  0  0  0
   -5.8492   -0.2788   -5.9113 C   0  0  0  0  0  0  0  0  0  0  0  0
   -0.2708    1.2987   -3.1331 C   0  0  0  0  0  0  0  0  0  0  0  0
   -3.2476    0.5128    0.4574 C   0  0  0  0  0  0  0  0  0  0  0  0
   -0.1842    0.9572   -1.7213 N   0  0  0  0  0  0  0  0  0  0  0  0
   -2.1871    0.1475   -0.5461 N   0  3  2  0  0  0  0  0  0  0  0  0
   -4.2828    3.0300    2.6382 O   0  5  0  0  0  0  0  0  0  0  0  0
    1.9931    0.1288   -1.8579 O   0  0  0  0  0  0  0  0  0  0  0  0
   -2.8533    3.9114    1.1290 O   0  0  0  0  0  0  0  0  0  0  0  0
   -7.4279    3.5435   -1.7236 O   0  0  0  0  0  0  0  0  0  0  0  0
   -6.1391    4.5190    0.0640 O   0  0  0  0  0  0  0  0  0  0  0  0
   -4.7307   -1.1177   -5.6267 O   0  0  0  0  0  0  0  0  0  0  0  0
    2.9468   -0.2197    2.9245 H   0  0  0  0  0  0  0  0  0  0  0  0
    0.9737   -1.3911    3.8596 H   0  0  0  0  0  0  0  0  0  0  0  0
    2.9311    0.5747    0.5916 H   0  0  0  0  0  0  0  0  0  0  0  0
   -1.0173   -1.7882    2.4624 H   0  0  0  0  0  0  0  0  0  0  0  0
   -4.8871   -0.2569   -1.5411 H   0  0  0  0  0  0  0  0  0  0  0  0
   -0.5566   -1.3058   -3.8695 H   0  0  0  0  0  0  0  0  0  0  0  0
   -2.6113    2.4805   -3.8629 H   0  0  0  0  0  0  0  0  0  0  0  0
   -6.7583    1.0131   -2.5690 H   0  0  0  0  0  0  0  0  0  0  0  0
   -2.5045   -2.3594   -4.9583 H   0  0  0  0  0  0  0  0  0  0  0  0
   -4.5573    1.4242   -4.9517 H   0  0  0  0  0  0  0  0  0  0  0  0
   -1.1069   -1.5856   -1.0782 H   0  0  0  0  0  0  0  0  0  0  0  0
   -2.1120   -1.7756    0.3454 H   0  0  0  0  0  0  0  0  0  0  0  0
   -0.9556    1.7693    0.0597 H   0  0  0  0  0  0  0  0  0  0  0  0
   -1.9455    2.0703   -1.3968 H   0  0  0  0  0  0  0  0  0  0  0  0
   -7.0218    5.5623   -1.4935 H   0  0  0  0  0  0  0  0  0  0  0  0
   -8.1489    4.8670   -0.3014 H   0  0  0  0  0  0  0  0  0  0  0  0
   -6.6350   -0.8680   -6.3903 H   0  0  0  0  0  0  0  0  0  0  0  0
   -5.5368    0.5355   -6.5699 H   0  0  0  0  0  0  0  0  0  0  0  0
   -6.2285    0.1376   -4.9751 H   0  0  0  0  0  0  0  0  0  0  0  0
    0.6600    0.9802   -3.6149 H   0  0  0  0  0  0  0  0  0  0  0  0
   -0.3206    2.3899   -3.2111 H   0  0  0  0  0  0  0  0  0  0  0  0
   -2.7462    1.0694    1.2564 H   0  0  0  0  0  0  0  0  0  0  0  0
   -3.6137   -0.4271    0.8844 H   0  0  0  0  0  0  0  0  0  0  0  0
   -2.6855   -0.0997   -1.4116 H   0  0  0  0  0  0  0  0  0  0  0  0
  1  2  2  0  0  0  0
  1  3  1  0  0  0  0
  2  4  1  0  0  0  0
  3 11  2  0  0  0  0
  4 13  2  0  0  0  0
  5  8  1  0  0  0  0
  5 15  2  0  0  0  0
  6  9  1  0  0  0  0
  6 14  2  0  0  0  0
  7 10  2  0  0  0  0
  7 14  1  0  0  0  0
  8 16  2  0  0  0  0
  9 18  2  0  0  0  0
 10 18  1  0  0  0  0
 11 13  1  0  0  0  0
 11 19  1  0  0  0  0
 12 15  1  0  0  0  0
 12 17  2  0  0  0  0
 12 20  1  0  0  0  0
 13 21  1  0  0  0  0
 14 25  1  0  0  0  0
 15 26  1  0  0  0  0
 16 17  1  0  0  0  0
 16 32  1  0  0  0  0
 17 33  1  0  0  0  0
 18 34  1  0  0  0  0
 19 27  1  0  0  0  0
 19 30  2  0  0  0  0
 20 29  1  0  0  0  0
 20 31  2  0  0  0  0
 21 28  1  0  0  0  0
 22 27  1  0  0  0  0
 22 28  1  0  0  0  0
 23 32  1  0  0  0  0
 23 33  1  0  0  0  0
 24 34  1  0  0  0  0
 25 27  1  0  0  0  0
 26 28  1  0  0  0  0
  1 35  1  0  0  0  0
  2 36  1  0  0  0  0
  3 37  1  0  0  0  0
  4 38  1  0  0  0  0
  5 39  1  0  0  0  0
  6 40  1  0  0  0  0
  7 41  1  0  0  0  0
  8 42  1  0  0  0  0
  9 43  1  0  0  0  0
 10 44  1  0  0  0  0
 21 45  1  0  0  0  0
 21 46  1  0  0  0  0
 22 47  1  0  0  0  0
 22 48  1  0  0  0  0
 23 49  1  0  0  0  0
 23 50  1  0  0  0  0
 24 51  1  0  0  0  0
 24 52  1  0  0  0  0
 24 53  1  0  0  0  0
 25 54  1  0  0  0  0
 25 55  1  0  0  0  0
 26 56  1  0  0  0  0
 26 57  1  0  0  0  0
 28 58  1  0  0  0  0
M  CHG  2  28   1  29  -1
M  END
$$$$
