AVX17385_0
  -OEChem-04011314533D

 31 33  0     0  0  0  0  0  0999 V2000
   -9.4179    0.7988    2.4398 C   0  0  0  0  0  0  0  0  0  0  0  0
   -0.7036    1.3640    1.5041 C   0  0  0  0  0  0  0  0  0  0  0  0
   -9.1458    0.7644    3.8074 C   0  0  0  0  0  0  0  0  0  0  0  0
   -8.5135    0.2438    1.5345 C   0  0  0  0  0  0  0  0  0  0  0  0
   -0.7671    0.1975    0.7446 C   0  0  0  0  0  0  0  0  0  0  0  0
   -1.6773    1.6439    2.4698 C   0  0  0  0  0  0  0  0  0  0  0  0
   -7.9691    0.1750    4.2697 C   0  0  0  0  0  0  0  0  0  0  0  0
   -7.3368   -0.3456    1.9968 C   0  0  0  0  0  0  0  0  0  0  0  0
   -1.8022   -0.7245    0.9247 C   0  0  0  0  0  0  0  0  0  0  0  0
   -2.7304    0.7292    2.6692 C   0  0  0  0  0  0  0  0  0  0  0  0
   -3.8586    0.6897    3.5356 C   0  0  0  0  0  0  0  0  0  0  0  0
   -7.0646   -0.3800    3.3644 C   0  0  0  0  0  0  0  0  0  0  0  0
   -2.7685   -0.4315    1.8936 C   0  0  0  0  0  0  0  0  0  0  0  0
   -4.5471   -0.4724    3.2738 C   0  0  0  0  0  0  0  0  0  0  0  0
   -4.2387    1.7431    4.5682 C   0  0  0  0  0  0  0  0  0  0  0  0
   -5.7805   -1.0231    3.8682 C   0  0  0  0  0  0  0  0  0  0  0  0
   -3.8818   -1.1421    2.2822 N   0  0  0  0  0  0  0  0  0  0  0  0
   -5.2841    1.5249    5.2443 O   0  5  0  0  0  0  0  0  0  0  0  0
   -3.4773    2.7475    4.6624 O   0  0  0  0  0  0  0  0  0  0  0  0
  -10.3348    1.2566    2.0801 H   0  0  0  0  0  0  0  0  0  0  0  0
    0.1110    2.0659    1.3460 H   0  0  0  0  0  0  0  0  0  0  0  0
   -9.8504    1.1956    4.5125 H   0  0  0  0  0  0  0  0  0  0  0  0
   -8.7255    0.2694    0.4697 H   0  0  0  0  0  0  0  0  0  0  0  0
    0.0001   -0.0003    0.0002 H   0  0  0  0  0  0  0  0  0  0  0  0
   -1.6138    2.5579    3.0534 H   0  0  0  0  0  0  0  0  0  0  0  0
   -7.7653    0.1529    5.3371 H   0  0  0  0  0  0  0  0  0  0  0  0
   -6.6379   -0.7754    1.2841 H   0  0  0  0  0  0  0  0  0  0  0  0
   -1.8505   -1.6325    0.3330 H   0  0  0  0  0  0  0  0  0  0  0  0
   -5.7652   -0.9415    4.9749 H   0  0  0  0  0  0  0  0  0  0  0  0
   -5.8539   -2.1177    3.7005 H   0  0  0  0  0  0  0  0  0  0  0  0
   -4.1641   -2.0298    1.8895 H   0  0  0  0  0  0  0  0  0  0  0  0
  1  3  2  0  0  0  0
  1  4  1  0  0  0  0
  2  5  2  0  0  0  0
  2  6  1  0  0  0  0
  3  7  1  0  0  0  0
  4  8  2  0  0  0  0
  5  9  1  0  0  0  0
  6 10  2  0  0  0  0
  7 12  2  0  0  0  0
  8 12  1  0  0  0  0
  9 13  2  0  0  0  0
 10 11  1  0  0  0  0
 10 13  1  0  0  0  0
 11 14  2  0  0  0  0
 11 15  1  0  0  0  0
 12 16  1  0  0  0  0
 13 17  1  0  0  0  0
 14 16  1  0  0  0  0
 14 17  1  0  0  0  0
 15 18  1  0  0  0  0
 15 19  2  0  0  0  0
  1 20  1  0  0  0  0
  2 21  1  0  0  0  0
  3 22  1  0  0  0  0
  4 23  1  0  0  0  0
  5 24  1  0  0  0  0
  6 25  1  0  0  0  0
  7 26  1  0  0  0  0
  8 27  1  0  0  0  0
  9 28  1  0  0  0  0
 16 29  1  0  0  0  0
 16 30  1  0  0  0  0
 17 31  1  0  0  0  0
M  CHG  1  18  -1
M  END
$$$$
