@<TRIPOS>MOLECULE
AVX17558_1
   53    56     0     0     0
SMALL
NO_CHARGES

@<TRIPOS>ATOM
      1 C1          1.8121    1.8090   -1.1916 C.ar      1 MOL         0.0000
      2 C2          1.2445    1.0062   -2.1923 C.ar      1 MOL         0.0000
      3 C3          1.4139    1.6723    0.1391 C.ar      1 MOL         0.0000
      4 C4          0.2716    0.0548   -1.8762 C.ar      1 MOL         0.0000
      5 C5         -3.5248   -2.9183    0.0661 C.ar      1 MOL         0.0000
      6 C6         -4.5129   -3.6969    0.6734 C.ar      1 MOL         0.0000
      7 C7         -1.7900   -4.4446    0.8335 C.ar      1 MOL         0.0000
      8 C8          0.4574    0.7177    0.4451 C.ar      1 MOL         0.0000
      9 C9         -0.1106   -0.0875   -0.5510 C.ar      1 MOL         0.0000
     10 C10        -2.1712   -3.2900    0.1456 C.ar      1 MOL         0.0000
     11 C11        -4.1100   -4.8319    1.3465 C.ar      1 MOL         0.0000
     12 C12        -2.7851   -5.1959    1.4243 C.ar      1 MOL         0.0000
     13 C13        -0.3803   -4.8559    0.9304 C.2       1 MOL         0.0000
     14 C14        -1.7644   -1.7987    3.6520 C.2       1 MOL         0.0000
     15 C15        -0.1388    0.4223    1.7852 C.3       1 MOL         0.0000
     16 C16        -3.9654   -6.6632    2.4899 C.3       1 MOL         0.0000
     17 C17        -1.1518   -1.0021    0.0354 C.3       1 MOL         0.0000
     18 C18        -0.7658   -0.9617    1.5347 C.3       1 MOL         0.0000
     19 C19        -1.1435   -2.4184   -0.5254 C.3       1 MOL         0.0000
     20 C20        -3.1095   -1.9457    4.3413 C.3       1 MOL         0.0000
     21 C21        -2.9917   -2.5878    5.7214 C.3       1 MOL         0.0000
     22 C22        -4.3598   -2.7563    6.3645 C.3       1 MOL         0.0000
     23 N1         -1.8889   -1.2126    2.3971 N.am      1 MOL         0.0000
     24 N2         -4.1922   -3.3396    7.7173 N.4       1 MOL         0.0000
     25 O1          0.1031   -5.6312    0.0226 O.co2     1 MOL         0.0000
     26 O2          0.3239   -4.4274    1.9200 O.co2     1 MOL         0.0000
     27 O3         -0.7058   -2.1615    4.1576 O.2       1 MOL         0.0000
     28 O4         -4.9255   -5.7076    1.9946 O.3       1 MOL         0.0000
     29 O5         -2.6052   -6.3448    2.1311 O.3       1 MOL         0.0000
     30 H1          2.5634    2.5477   -1.4572 H         1 MOL         0.0000
     31 H2          1.5604    1.1315   -3.2244 H         1 MOL         0.0000
     32 H3          1.8458    2.3010    0.9103 H         1 MOL         0.0000
     33 H4         -0.1719   -0.5499   -2.6597 H         1 MOL         0.0000
     34 H5         -3.8132   -2.0182   -0.4717 H         1 MOL         0.0000
     35 H6         -5.5577   -3.4138    0.6145 H         1 MOL         0.0000
     36 H7          0.6167    0.3767    2.5755 H         1 MOL         0.0000
     37 H8         -0.8902    1.1782    2.0386 H         1 MOL         0.0000
     38 H9         -4.0401   -6.7014    3.5828 H         1 MOL         0.0000
     39 H10        -4.2129   -7.6514    2.0852 H         1 MOL         0.0000
     40 H11        -2.1407   -0.5507   -0.1204 H         1 MOL         0.0000
     41 H12        -0.0191   -1.7378    1.7550 H         1 MOL         0.0000
     42 H13        -0.1470   -2.8572   -0.4016 H         1 MOL         0.0000
     43 H14        -1.3308   -2.3878   -1.6049 H         1 MOL         0.0000
     44 H15        -3.7581   -2.5544    3.6999 H         1 MOL         0.0000
     45 H16        -3.5600   -0.9497    4.4290 H         1 MOL         0.0000
     46 H17        -2.3510   -1.9691    6.3628 H         1 MOL         0.0000
     47 H18        -2.4971   -3.5636    5.6331 H         1 MOL         0.0000
     48 H19        -4.8728   -1.7987    6.4932 H         1 MOL         0.0000
     49 H20        -4.9970   -3.4428    5.7996 H         1 MOL         0.0000
     50 H21        -2.8193   -0.9807    2.0533 H         1 MOL         0.0000
     51 H22        -4.0837   -2.6040    8.4241 H         1 MOL         0.0000
     52 H23        -3.3617   -3.9407    7.7577 H         1 MOL         0.0000
     53 H24        -5.0061   -3.9081    7.9760 H         1 MOL         0.0000
@<TRIPOS>BOND
     1    1    2 ar
     2    1    3 ar
     3    2    4 ar
     4    3    8 ar
     5    4    9 ar
     6    5    6 ar
     7    5   10 ar
     8    6   11 ar
     9    7   10 ar
    10    7   12 ar
    11    7   13 1
    12    8    9 ar
    13    8   15 1
    14    9   17 1
    15   10   19 1
    16   11   12 ar
    17   11   28 1
    18   12   29 1
    19   13   25 1
    20   13   26 2
    21   14   20 1
    22   14   23 am
    23   14   27 2
    24   15   18 1
    25   16   28 1
    26   16   29 1
    27   17   18 1
    28   17   19 1
    29   18   23 1
    30   20   21 1
    31   21   22 1
    32   22   24 1
    33    1   30 1
    34    2   31 1
    35    3   32 1
    36    4   33 1
    37    5   34 1
    38    6   35 1
    39   15   36 1
    40   15   37 1
    41   16   38 1
    42   16   39 1
    43   17   40 1
    44   18   41 1
    45   19   42 1
    46   19   43 1
    47   20   44 1
    48   20   45 1
    49   21   46 1
    50   21   47 1
    51   22   48 1
    52   22   49 1
    53   23   50 1
    54   24   51 1
    55   24   52 1
    56   24   53 1
