AVX17734_0
  -OEChem-04011314553D

 67 70  0     1  0  0  0  0  0999 V2000
  -11.2618   -6.0744    0.2400 C   0  0  0  0  0  0  0  0  0  0  0  0
   -4.6829   -7.5611   -0.5346 C   0  0  0  0  0  0  0  0  0  0  0  0
  -10.8703   -5.4101   -0.9222 C   0  0  0  0  0  0  0  0  0  0  0  0
  -10.8702   -5.5876    1.4872 C   0  0  0  0  0  0  0  0  0  0  0  0
   -5.0076   -6.9317    0.6671 C   0  0  0  0  0  0  0  0  0  0  0  0
   -4.5405   -6.8080   -1.7001 C   0  0  0  0  0  0  0  0  0  0  0  0
  -10.0871   -4.2590   -0.8374 C   0  0  0  0  0  0  0  0  0  0  0  0
  -10.0870   -4.4365    1.5720 C   0  0  0  0  0  0  0  0  0  0  0  0
   -5.1900   -5.5493    0.7033 C   0  0  0  0  0  0  0  0  0  0  0  0
   -4.7229   -5.4256   -1.6638 C   0  0  0  0  0  0  0  0  0  0  0  0
   -0.7528    0.6980   -0.4153 C   0  0  0  0  0  0  0  0  0  0  0  0
   -0.7240    2.0124    0.0510 C   0  0  0  0  0  0  0  0  0  0  0  0
   -1.6345    1.4617   -2.5332 C   0  0  0  0  0  0  0  0  0  0  0  0
   -9.6954   -3.7722    0.4097 C   0  0  0  0  0  0  0  0  0  0  0  0
   -5.0476   -4.7962   -0.4621 C   0  0  0  0  0  0  0  0  0  0  0  0
   -1.2024    0.4236   -1.7075 C   0  0  0  0  0  0  0  0  0  0  0  0
   -1.1428    3.0524   -0.7793 C   0  0  0  0  0  0  0  0  0  0  0  0
   -1.6183    2.7751   -2.0629 C   0  0  0  0  0  0  0  0  0  0  0  0
   -2.1184    1.1660   -3.8973 C   0  0  0  0  0  0  0  0  0  0  0  0
   -6.6953   -2.9123   -0.6897 C   0  0  0  0  0  0  0  0  0  0  0  0
    1.1336    7.0908   -0.1799 C   0  0  0  0  0  0  0  0  0  0  0  0
   -3.1278   -2.1725   -1.0957 C   0  0  0  0  0  0  0  0  0  0  0  0
   -2.3352    4.9776   -2.2281 C   0  0  0  0  0  0  0  0  0  0  0  0
   -1.1782    5.3196   -1.2987 C   0  0  1  0  0  0  0  0  0  0  0  0
   -8.8522   -2.5334    0.5017 C   0  0  0  0  0  0  0  0  0  0  0  0
   -1.2130   -0.9944   -2.1786 C   0  0  0  0  0  0  0  0  0  0  0  0
   -0.2905    6.9744    0.3762 C   0  0  0  0  0  0  0  0  0  0  0  0
   -1.3923    6.6641   -0.6190 C   0  0  0  0  0  0  0  0  0  0  0  0
   -5.2453   -3.2987   -0.4236 C   0  0  2  0  0  0  0  0  0  0  0  0
   -7.4396   -2.8378    0.4794 N   0  0  0  0  0  0  0  0  0  0  0  0
   -2.5403   -1.5521   -2.1984 N   0  0  0  0  0  0  0  0  0  0  0  0
   -4.4133   -2.6204   -1.3894 N   0  0  0  0  0  0  0  0  0  0  0  0
   -1.2702    1.1634   -4.8629 O   0  5  0  0  0  0  0  0  0  0  0  0
    2.0703    6.7660    0.6001 O   0  5  0  0  0  0  0  0  0  0  0  0
   -3.3692    0.9230   -4.0663 O   0  0  0  0  0  0  0  0  0  0  0  0
   -7.1401   -2.7320   -1.8217 O   0  0  0  0  0  0  0  0  0  0  0  0
    1.1910    7.4929   -1.3778 O   0  0  0  0  0  0  0  0  0  0  0  0
   -2.5801   -2.3063   -0.0022 O   0  0  0  0  0  0  0  0  0  0  0  0
   -2.0732    3.7483   -2.9129 O   0  0  0  0  0  0  0  0  0  0  0  0
   -1.0714    4.3233   -0.2727 O   0  0  0  0  0  0  0  0  0  0  0  0
  -11.8728   -6.9699    0.1739 H   0  0  0  0  0  0  0  0  0  0  0  0
   -4.5396   -8.6373   -0.5624 H   0  0  0  0  0  0  0  0  0  0  0  0
  -11.1760   -5.7883   -1.8934 H   0  0  0  0  0  0  0  0  0  0  0  0
  -11.1758   -6.1039    2.3924 H   0  0  0  0  0  0  0  0  0  0  0  0
   -5.1175   -7.5178    1.5749 H   0  0  0  0  0  0  0  0  0  0  0  0
   -4.2866   -7.2975   -2.6356 H   0  0  0  0  0  0  0  0  0  0  0  0
   -9.7865   -3.7480   -1.7484 H   0  0  0  0  0  0  0  0  0  0  0  0
   -9.7865   -4.0646    2.5480 H   0  0  0  0  0  0  0  0  0  0  0  0
   -5.4431   -5.0675    1.6441 H   0  0  0  0  0  0  0  0  0  0  0  0
   -4.6100   -4.8469   -2.5768 H   0  0  0  0  0  0  0  0  0  0  0  0
   -0.4181   -0.1060    0.2351 H   0  0  0  0  0  0  0  0  0  0  0  0
   -0.3629    2.2182    1.0549 H   0  0  0  0  0  0  0  0  0  0  0  0
   -3.2819    4.8750   -1.6826 H   0  0  0  0  0  0  0  0  0  0  0  0
   -2.4637    5.7550   -2.9887 H   0  0  0  0  0  0  0  0  0  0  0  0
   -0.2294    5.3402   -1.8520 H   0  0  0  0  0  0  0  0  0  0  0  0
   -9.0650   -1.8585   -0.3345 H   0  0  0  0  0  0  0  0  0  0  0  0
   -9.0615   -1.9832    1.4251 H   0  0  0  0  0  0  0  0  0  0  0  0
   -0.8040   -1.0744   -3.1944 H   0  0  0  0  0  0  0  0  0  0  0  0
   -0.5962   -1.6346   -1.5347 H   0  0  0  0  0  0  0  0  0  0  0  0
   -0.5189    7.9448    0.8346 H   0  0  0  0  0  0  0  0  0  0  0  0
   -0.2903    6.2305    1.1827 H   0  0  0  0  0  0  0  0  0  0  0  0
   -1.4684    7.4280   -1.3909 H   0  0  0  0  0  0  0  0  0  0  0  0
   -2.3509    6.6139   -0.1031 H   0  0  0  0  0  0  0  0  0  0  0  0
   -4.9441   -2.8966    0.5513 H   0  0  0  0  0  0  0  0  0  0  0  0
   -6.9833   -3.0045    1.3714 H   0  0  0  0  0  0  0  0  0  0  0  0
   -3.0771   -1.4906   -3.0606 H   0  0  0  0  0  0  0  0  0  0  0  0
   -4.8016   -2.4243   -2.3067 H   0  0  0  0  0  0  0  0  0  0  0  0
  1  3  2  0  0  0  0
  1  4  1  0  0  0  0
  2  5  2  0  0  0  0
  2  6  1  0  0  0  0
  3  7  1  0  0  0  0
  4  8  2  0  0  0  0
  5  9  1  0  0  0  0
  6 10  2  0  0  0  0
  7 14  2  0  0  0  0
  8 14  1  0  0  0  0
  9 15  2  0  0  0  0
 10 15  1  0  0  0  0
 11 12  2  0  0  0  0
 11 16  1  0  0  0  0
 12 17  1  0  0  0  0
 13 16  2  0  0  0  0
 13 18  1  0  0  0  0
 13 19  1  0  0  0  0
 14 25  1  0  0  0  0
 15 29  1  0  0  0  0
 16 26  1  0  0  0  0
 17 18  2  0  0  0  0
 17 40  1  0  0  0  0
 18 39  1  0  0  0  0
 19 33  1  0  0  0  0
 19 35  2  0  0  0  0
 20 29  1  0  0  0  0
 20 30  1  0  0  0  0
 20 36  2  0  0  0  0
 21 27  1  0  0  0  0
 21 34  1  0  0  0  0
 21 37  2  0  0  0  0
 22 31  1  0  0  0  0
 22 32  1  0  0  0  0
 22 38  2  0  0  0  0
 23 24  1  0  0  0  0
 23 39  1  0  0  0  0
 24 28  1  0  0  0  0
 24 40  1  0  0  0  0
 25 30  1  0  0  0  0
 26 31  1  0  0  0  0
 27 28  1  0  0  0  0
 29 32  1  0  0  0  0
  1 41  1  0  0  0  0
  2 42  1  0  0  0  0
  3 43  1  0  0  0  0
  4 44  1  0  0  0  0
  5 45  1  0  0  0  0
  6 46  1  0  0  0  0
  7 47  1  0  0  0  0
  8 48  1  0  0  0  0
  9 49  1  0  0  0  0
 10 50  1  0  0  0  0
 11 51  1  0  0  0  0
 12 52  1  0  0  0  0
 23 53  1  0  0  0  0
 23 54  1  0  0  0  0
 24 55  1  0  0  0  0
 25 56  1  0  0  0  0
 25 57  1  0  0  0  0
 26 58  1  0  0  0  0
 26 59  1  0  0  0  0
 27 60  1  0  0  0  0
 27 61  1  0  0  0  0
 28 62  1  0  0  0  0
 28 63  1  0  0  0  0
 29 64  1  0  0  0  0
 30 65  1  0  0  0  0
 31 66  1  0  0  0  0
 32 67  1  0  0  0  0
M  CHG  2  33  -1  34  -1
M  END
$$$$
