@<TRIPOS>MOLECULE
AVX17684_1
   54    58     0     0     0
SMALL
NO_CHARGES

@<TRIPOS>ATOM
      1 C1         -2.1057   -1.8265   -5.4310 C.ar      1 MOL         0.0000
      2 C2          2.0711   -0.3869    2.3041 C.ar      1 MOL         0.0000
      3 C3          0.9615   -1.0456    2.8299 C.ar      1 MOL         0.0000
      4 C4         -0.7233   -1.8175   -5.2450 C.ar      1 MOL         0.0000
      5 C5         -2.8914   -0.8195   -4.8702 C.ar      1 MOL         0.0000
      6 C6          2.0584    0.0589    0.9834 C.ar      1 MOL         0.0000
      7 C7         -0.1641   -1.2672    2.0349 C.ar      1 MOL         0.0000
      8 C8         -0.1267   -0.8018   -4.4981 C.ar      1 MOL         0.0000
      9 C9         -2.2948    0.1962   -4.1234 C.ar      1 MOL         0.0000
     10 C10        -4.8328    1.5544   -1.1708 C.ar      1 MOL         0.0000
     11 C11        -5.6361    2.6070   -1.6158 C.ar      1 MOL         0.0000
     12 C12         0.9252   -0.1492    0.1881 C.ar      1 MOL         0.0000
     13 C13        -4.1540    2.8412    0.7816 C.ar      1 MOL         0.0000
     14 C14        -0.1944   -0.8293    0.7041 C.ar      1 MOL         0.0000
     15 C15        -0.9124    0.2052   -3.9373 C.ar      1 MOL         0.0000
     16 C16        -4.0960    1.6708    0.0211 C.ar      1 MOL         0.0000
     17 C17        -5.6759    3.7517   -0.8465 C.ar      1 MOL         0.0000
     18 C18        -4.9548    3.8656    0.3201 C.ar      1 MOL         0.0000
     19 C19         0.9623    0.3300   -1.2176 C.2       1 MOL         0.0000
     20 C20        -3.3934    2.9876    2.0329 C.2       1 MOL         0.0000
     21 C21        -1.4078   -1.0930   -0.1449 C.3       1 MOL         0.0000
     22 C22        -1.3156    1.3373   -0.8810 C.3       1 MOL         0.0000
     23 C23        -6.0506    5.7048    0.0062 C.3       1 MOL         0.0000
     24 C24        -0.2708    1.2987   -3.1331 C.3       1 MOL         0.0000
     25 C25        -3.2476    0.5128    0.4574 C.3       1 MOL         0.0000
     26 N1         -0.1842    0.9572   -1.7213 N.am      1 MOL         0.0000
     27 N2         -2.1871    0.1475   -0.5461 N.4       1 MOL         0.0000
     28 O1         -3.9461    2.6296    3.1398 O.co2     1 MOL         0.0000
     29 O2          1.9931    0.1288   -1.8579 O.2       1 MOL         0.0000
     30 O3         -2.2000    3.4692    1.9803 O.co2     1 MOL         0.0000
     31 O4         -6.3983    4.8722   -1.1191 O.3       1 MOL         0.0000
     32 O5         -5.1352    5.0718    0.9238 O.3       1 MOL         0.0000
     33 H1         -2.5699   -2.6167   -6.0137 H         1 MOL         0.0000
     34 H2          2.9468   -0.2197    2.9245 H         1 MOL         0.0000
     35 H3          0.9737   -1.3911    3.8596 H         1 MOL         0.0000
     36 H4         -0.1112   -2.6009   -5.6825 H         1 MOL         0.0000
     37 H5         -3.9676   -0.8256   -5.0158 H         1 MOL         0.0000
     38 H6          2.9311    0.5747    0.5916 H         1 MOL         0.0000
     39 H7         -1.0173   -1.7882    2.4624 H         1 MOL         0.0000
     40 H8          0.9511   -0.8030   -4.3582 H         1 MOL         0.0000
     41 H9         -2.9149    0.9765   -3.6901 H         1 MOL         0.0000
     42 H10        -4.7824    0.6397   -1.7568 H         1 MOL         0.0000
     43 H11        -6.2058    2.5214   -2.5341 H         1 MOL         0.0000
     44 H12        -1.1069   -1.5856   -1.0782 H         1 MOL         0.0000
     45 H13        -2.1120   -1.7756    0.3454 H         1 MOL         0.0000
     46 H14        -0.9556    1.7693    0.0597 H         1 MOL         0.0000
     47 H15        -1.9455    2.0703   -1.3968 H         1 MOL         0.0000
     48 H16        -5.5906    6.6265   -0.3682 H         1 MOL         0.0000
     49 H17        -6.9676    5.9636    0.5479 H         1 MOL         0.0000
     50 H18         0.7437    1.4994   -3.4944 H         1 MOL         0.0000
     51 H19        -0.8368    2.2324   -3.2175 H         1 MOL         0.0000
     52 H20        -2.7292    0.7335    1.3966 H         1 MOL         0.0000
     53 H21        -3.8548   -0.3853    0.6144 H         1 MOL         0.0000
     54 H22        -2.6855   -0.0997   -1.4116 H         1 MOL         0.0000
@<TRIPOS>BOND
     1    1    4 ar
     2    1    5 ar
     3    2    3 ar
     4    2    6 ar
     5    3    7 ar
     6    4    8 ar
     7    5    9 ar
     8    6   12 ar
     9    7   14 ar
    10    8   15 ar
    11    9   15 ar
    12   10   11 ar
    13   10   16 ar
    14   11   17 ar
    15   12   14 ar
    16   12   19 1
    17   13   16 ar
    18   13   18 ar
    19   13   20 1
    20   14   21 1
    21   15   24 1
    22   16   25 1
    23   17   18 ar
    24   17   31 1
    25   18   32 1
    26   19   26 am
    27   19   29 2
    28   20   28 1
    29   20   30 2
    30   21   27 1
    31   22   26 1
    32   22   27 1
    33   23   31 1
    34   23   32 1
    35   24   26 1
    36   25   27 1
    37    1   33 1
    38    2   34 1
    39    3   35 1
    40    4   36 1
    41    5   37 1
    42    6   38 1
    43    7   39 1
    44    8   40 1
    45    9   41 1
    46   10   42 1
    47   11   43 1
    48   21   44 1
    49   21   45 1
    50   22   46 1
    51   22   47 1
    52   23   48 1
    53   23   49 1
    54   24   50 1
    55   24   51 1
    56   25   52 1
    57   25   53 1
    58   27   54 1
