AVX17552_0
  -OEChem-04011314543D

 47 51  0     0  0  0  0  0  0999 V2000
    5.3138   -0.3962    5.6897 C   0  0  0  0  0  0  0  0  0  0  0  0
    3.0881    6.1994    3.8278 C   0  0  0  0  0  0  0  0  0  0  0  0
    4.3583    0.5850    5.9540 C   0  0  0  0  0  0  0  0  0  0  0  0
    5.8283   -0.5395    4.4011 C   0  0  0  0  0  0  0  0  0  0  0  0
    4.3920    5.8443    3.4826 C   0  0  0  0  0  0  0  0  0  0  0  0
    2.0647    5.2546    3.7522 C   0  0  0  0  0  0  0  0  0  0  0  0
   -1.0401    0.2034   -2.5613 C   0  0  0  0  0  0  0  0  0  0  0  0
    3.9172    1.4228    4.9297 C   0  0  0  0  0  0  0  0  0  0  0  0
    5.3871    0.2983    3.3768 C   0  0  0  0  0  0  0  0  0  0  0  0
    4.6726    4.5444    3.0617 C   0  0  0  0  0  0  0  0  0  0  0  0
    2.3452    3.9547    3.3313 C   0  0  0  0  0  0  0  0  0  0  0  0
   -2.1854   -0.5877   -2.4020 C   0  0  0  0  0  0  0  0  0  0  0  0
   -0.5580   -0.0734   -0.2034 C   0  0  0  0  0  0  0  0  0  0  0  0
   -0.2355    0.4519   -1.4523 C   0  0  0  0  0  0  0  0  0  0  0  0
    4.4316    1.2794    3.6411 C   0  0  0  0  0  0  0  0  0  0  0  0
    3.6492    3.5995    2.9860 C   0  0  0  0  0  0  0  0  0  0  0  0
   -2.4730   -1.0936   -1.1394 C   0  0  0  0  0  0  0  0  0  0  0  0
   -1.6751   -0.8455   -0.0459 C   0  0  0  0  0  0  0  0  0  0  0  0
    0.4577    0.3496    0.7605 C   0  0  0  0  0  0  0  0  0  0  0  0
    2.5628    1.7909    0.5100 C   0  0  0  0  0  0  0  0  0  0  0  0
    1.0163    1.2500   -1.3654 C   0  0  0  0  0  0  0  0  0  0  0  0
   -3.3215   -2.0869    0.5876 C   0  0  0  0  0  0  0  0  0  0  0  0
    3.9531    2.1882    2.5289 C   0  0  0  0  0  0  0  0  0  0  0  0
    1.3934    1.1425    0.0477 N   0  0  0  0  0  0  0  0  0  0  0  0
    2.8090    1.6080    1.8659 N   0  0  0  0  0  0  0  0  0  0  0  0
    0.4338    0.0367    1.9374 O   0  0  0  0  0  0  0  0  0  0  0  0
    3.2950    2.4566   -0.2263 O   0  0  0  0  0  0  0  0  0  0  0  0
   -3.5436   -1.8748   -0.8226 O   0  0  0  0  0  0  0  0  0  0  0  0
   -2.1364   -1.4315    1.0847 O   0  0  0  0  0  0  0  0  0  0  0  0
    5.6582   -1.0475    6.4876 H   0  0  0  0  0  0  0  0  0  0  0  0
    2.8700    7.2112    4.1568 H   0  0  0  0  0  0  0  0  0  0  0  0
    3.9584    0.6975    6.9576 H   0  0  0  0  0  0  0  0  0  0  0  0
    6.5730   -1.3026    4.1952 H   0  0  0  0  0  0  0  0  0  0  0  0
    5.1892    6.5795    3.5424 H   0  0  0  0  0  0  0  0  0  0  0  0
    1.0496    5.5304    4.0220 H   0  0  0  0  0  0  0  0  0  0  0  0
   -0.7881    0.6129   -3.5342 H   0  0  0  0  0  0  0  0  0  0  0  0
    3.1722    2.1844    5.1449 H   0  0  0  0  0  0  0  0  0  0  0  0
    5.7934    0.1792    2.3759 H   0  0  0  0  0  0  0  0  0  0  0  0
    5.6915    4.2767    2.7945 H   0  0  0  0  0  0  0  0  0  0  0  0
    1.5415    3.2252    3.2754 H   0  0  0  0  0  0  0  0  0  0  0  0
   -2.8308   -0.7973   -3.2484 H   0  0  0  0  0  0  0  0  0  0  0  0
    1.8199    0.8341   -1.9811 H   0  0  0  0  0  0  0  0  0  0  0  0
    0.8568    2.3043   -1.6123 H   0  0  0  0  0  0  0  0  0  0  0  0
   -4.1895   -1.7089    1.1399 H   0  0  0  0  0  0  0  0  0  0  0  0
   -3.2298   -3.1639    0.7700 H   0  0  0  0  0  0  0  0  0  0  0  0
    4.7242    2.2411    1.7493 H   0  0  0  0  0  0  0  0  0  0  0  0
    2.1682    1.0495    2.4213 H   0  0  0  0  0  0  0  0  0  0  0  0
  1  3  2  0  0  0  0
  1  4  1  0  0  0  0
  2  5  2  0  0  0  0
  2  6  1  0  0  0  0
  3  8  1  0  0  0  0
  4  9  2  0  0  0  0
  5 10  1  0  0  0  0
  6 11  2  0  0  0  0
  7 12  1  0  0  0  0
  7 14  2  0  0  0  0
  8 15  2  0  0  0  0
  9 15  1  0  0  0  0
 10 16  2  0  0  0  0
 11 16  1  0  0  0  0
 12 17  2  0  0  0  0
 13 14  1  0  0  0  0
 13 18  2  0  0  0  0
 13 19  1  0  0  0  0
 14 21  1  0  0  0  0
 15 23  1  0  0  0  0
 16 23  1  0  0  0  0
 17 18  1  0  0  0  0
 17 28  1  0  0  0  0
 18 29  1  0  0  0  0
 19 24  1  0  0  0  0
 19 26  2  0  0  0  0
 20 24  1  0  0  0  0
 20 25  1  0  0  0  0
 20 27  2  0  0  0  0
 21 24  1  0  0  0  0
 22 28  1  0  0  0  0
 22 29  1  0  0  0  0
 23 25  1  0  0  0  0
  1 30  1  0  0  0  0
  2 31  1  0  0  0  0
  3 32  1  0  0  0  0
  4 33  1  0  0  0  0
  5 34  1  0  0  0  0
  6 35  1  0  0  0  0
  7 36  1  0  0  0  0
  8 37  1  0  0  0  0
  9 38  1  0  0  0  0
 10 39  1  0  0  0  0
 11 40  1  0  0  0  0
 12 41  1  0  0  0  0
 21 42  1  0  0  0  0
 21 43  1  0  0  0  0
 22 44  1  0  0  0  0
 22 45  1  0  0  0  0
 23 46  1  0  0  0  0
 25 47  1  0  0  0  0
M  END
$$$$
