AVX101123_0
  -OEChem-04011314513D

 55 57  0     1  0  0  0  0  0999 V2000
    5.1933   -2.0630   -0.9000 C   0  0  0  0  0  0  0  0  0  0  0  0
    4.1552   -2.8835   -0.4588 C   0  0  0  0  0  0  0  0  0  0  0  0
    5.7476   -1.1157   -0.0391 C   0  0  0  0  0  0  0  0  0  0  0  0
    3.6713   -2.7567    0.8433 C   0  0  0  0  0  0  0  0  0  0  0  0
    5.2637   -0.9889    1.2630 C   0  0  0  0  0  0  0  0  0  0  0  0
    0.8590   -1.0691    1.4036 C   0  0  0  0  0  0  0  0  0  0  0  0
   -0.3593   -1.5648    0.9331 C   0  0  0  0  0  0  0  0  0  0  0  0
    0.3467   -1.8303    3.6588 C   0  0  0  0  0  0  0  0  0  0  0  0
    4.2255   -1.8094    1.7042 C   0  0  0  0  0  0  0  0  0  0  0  0
    1.2100   -1.2012    2.7586 C   0  0  0  0  0  0  0  0  0  0  0  0
   -1.1937   -2.1817    1.8424 C   0  0  0  0  0  0  0  0  0  0  0  0
   -0.8501   -2.3111    3.1688 C   0  0  0  0  0  0  0  0  0  0  0  0
    0.6911   -1.9821    5.0816 C   0  0  0  0  0  0  0  0  0  0  0  0
    4.7898   -2.8324    6.0652 C   0  0  0  0  0  0  0  0  0  0  0  0
   -2.7975   -3.2064    2.8720 C   0  0  0  0  0  0  0  0  0  0  0  0
    2.5390   -0.6487    3.2192 C   0  0  0  0  0  0  0  0  0  0  0  0
    4.3406   -2.8896    7.5163 C   0  0  0  0  0  0  0  0  0  0  0  0
    4.6613   -4.2135    8.2085 C   0  0  0  0  0  0  0  0  0  0  0  0
    4.2628   -4.2103    9.6873 C   0  0  0  0  0  0  0  0  0  0  0  0
    4.8099   -1.2784    4.1168 C   0  0  0  0  0  0  0  0  0  0  0  0
    4.5686   -5.5528   10.3358 C   0  0  0  0  0  0  0  0  0  0  0  0
    3.6974   -1.6702    3.1262 C   0  0  2  0  0  0  0  0  0  0  0  0
    4.4764   -1.6128    5.4827 N   0  0  0  0  0  0  0  0  0  0  0  0
    4.2103   -5.4908   11.7732 N   0  3  0  0  0  0  0  0  0  0  0  0
    1.3252   -3.0385    5.4567 O   0  5  0  0  0  0  0  0  0  0  0  0
    0.3469   -1.0537    5.9052 O   0  0  0  0  0  0  0  0  0  0  0  0
    5.3749   -3.7552    5.5051 O   0  0  0  0  0  0  0  0  0  0  0  0
   -2.4121   -2.7227    1.5690 O   0  0  0  0  0  0  0  0  0  0  0  0
   -1.8105   -2.9489    3.8918 O   0  0  0  0  0  0  0  0  0  0  0  0
    5.5709   -2.1628   -1.9135 H   0  0  0  0  0  0  0  0  0  0  0  0
    3.7242   -3.6219   -1.1286 H   0  0  0  0  0  0  0  0  0  0  0  0
    6.5565   -0.4774   -0.3820 H   0  0  0  0  0  0  0  0  0  0  0  0
    2.8621   -3.4002    1.1784 H   0  0  0  0  0  0  0  0  0  0  0  0
    5.7015   -0.2480    1.9266 H   0  0  0  0  0  0  0  0  0  0  0  0
    1.5369   -0.5784    0.7092 H   0  0  0  0  0  0  0  0  0  0  0  0
   -0.6338   -1.4651   -0.1109 H   0  0  0  0  0  0  0  0  0  0  0  0
   -3.7367   -2.7217    3.1625 H   0  0  0  0  0  0  0  0  0  0  0  0
   -2.9639   -4.2879    2.8098 H   0  0  0  0  0  0  0  0  0  0  0  0
    2.4448   -0.2603    4.2417 H   0  0  0  0  0  0  0  0  0  0  0  0
    2.7693    0.2264    2.5962 H   0  0  0  0  0  0  0  0  0  0  0  0
    3.2653   -2.6832    7.5719 H   0  0  0  0  0  0  0  0  0  0  0  0
    4.8599   -2.0796    8.0432 H   0  0  0  0  0  0  0  0  0  0  0  0
    4.1665   -5.0438    7.6904 H   0  0  0  0  0  0  0  0  0  0  0  0
    5.7416   -4.3904    8.1343 H   0  0  0  0  0  0  0  0  0  0  0  0
    4.8064   -3.4138   10.2108 H   0  0  0  0  0  0  0  0  0  0  0  0
    3.1943   -3.9875    9.7895 H   0  0  0  0  0  0  0  0  0  0  0  0
    5.7351   -1.8164    3.8842 H   0  0  0  0  0  0  0  0  0  0  0  0
    5.0304   -0.2064    4.0861 H   0  0  0  0  0  0  0  0  0  0  0  0
    5.6329   -5.8003   10.2845 H   0  0  0  0  0  0  0  0  0  0  0  0
    3.9798   -6.3636    9.8967 H   0  0  0  0  0  0  0  0  0  0  0  0
    3.3131   -2.6498    3.4449 H   0  0  0  0  0  0  0  0  0  0  0  0
    3.9774   -0.9159    6.0278 H   0  0  0  0  0  0  0  0  0  0  0  0
    3.2381   -5.1878   11.8972 H   0  0  0  0  0  0  0  0  0  0  0  0
    4.8134   -4.8284   12.2736 H   0  0  0  0  0  0  0  0  0  0  0  0
    4.3136   -6.4096   12.2179 H   0  0  0  0  0  0  0  0  0  0  0  0
  1  2  2  0  0  0  0
  1  3  1  0  0  0  0
  2  4  1  0  0  0  0
  3  5  2  0  0  0  0
  4  9  2  0  0  0  0
  5  9  1  0  0  0  0
  6  7  2  0  0  0  0
  6 10  1  0  0  0  0
  7 11  1  0  0  0  0
  8 10  2  0  0  0  0
  8 12  1  0  0  0  0
  8 13  1  0  0  0  0
  9 22  1  0  0  0  0
 10 16  1  0  0  0  0
 11 12  2  0  0  0  0
 11 28  1  0  0  0  0
 12 29  1  0  0  0  0
 13 25  1  0  0  0  0
 13 26  2  0  0  0  0
 14 17  1  0  0  0  0
 14 23  1  0  0  0  0
 14 27  2  0  0  0  0
 15 28  1  0  0  0  0
 15 29  1  0  0  0  0
 16 22  1  0  0  0  0
 17 18  1  0  0  0  0
 18 19  1  0  0  0  0
 19 21  1  0  0  0  0
 20 22  1  0  0  0  0
 20 23  1  0  0  0  0
 21 24  1  0  0  0  0
  1 30  1  0  0  0  0
  2 31  1  0  0  0  0
  3 32  1  0  0  0  0
  4 33  1  0  0  0  0
  5 34  1  0  0  0  0
  6 35  1  0  0  0  0
  7 36  1  0  0  0  0
 15 37  1  0  0  0  0
 15 38  1  0  0  0  0
 16 39  1  0  0  0  0
 16 40  1  0  0  0  0
 17 41  1  0  0  0  0
 17 42  1  0  0  0  0
 18 43  1  0  0  0  0
 18 44  1  0  0  0  0
 19 45  1  0  0  0  0
 19 46  1  0  0  0  0
 20 47  1  0  0  0  0
 20 48  1  0  0  0  0
 21 49  1  0  0  0  0
 21 50  1  0  0  0  0
 22 51  1  0  0  0  0
 23 52  1  0  0  0  0
 24 53  1  0  0  0  0
 24 54  1  0  0  0  0
 24 55  1  0  0  0  0
M  CHG  2  24   1  25  -1
M  END
$$$$
