AVX17285_1
  -OEChem-04011314523D

 30 32  0     0  0  0  0  0  0999 V2000
   -0.1948   -1.2188   -1.7733 C   0  0  0  0  0  0  0  0  0  0  0  0
    0.0489   -1.0083   -0.4029 C   0  0  0  0  0  0  0  0  0  0  0  0
   -0.6214   -9.3361   -2.8674 C   0  0  0  0  0  0  0  0  0  0  0  0
   -0.1402   -2.5032   -2.3253 C   0  0  0  0  0  0  0  0  0  0  0  0
   -0.7763   -7.9536   -2.7672 C   0  0  0  0  0  0  0  0  0  0  0  0
    0.6388   -9.8807   -3.1150 C   0  0  0  0  0  0  0  0  0  0  0  0
    0.3519   -2.0775    0.4422 C   0  0  0  0  0  0  0  0  0  0  0  0
    1.5891   -7.6599   -3.1623 C   0  0  0  0  0  0  0  0  0  0  0  0
    0.1604   -3.5565   -1.4826 C   0  0  0  0  0  0  0  0  0  0  0  0
    0.3289   -7.1155   -2.9147 C   0  0  0  0  0  0  0  0  0  0  0  0
    1.7439   -9.0426   -3.2625 C   0  0  0  0  0  0  0  0  0  0  0  0
    0.4008   -3.3366   -0.1231 C   0  0  0  0  0  0  0  0  0  0  0  0
    0.3033   -4.9945   -1.6833 C   0  0  0  0  0  0  0  0  0  0  0  0
    0.6440   -5.6207   -0.3620 C   0  0  0  0  0  0  0  0  0  0  0  0
    0.1687   -5.6938   -2.8117 C   0  0  0  0  0  0  0  0  0  0  0  0
    3.0736   -9.6170   -3.5239 C   0  0  0  0  0  0  0  0  0  0  0  0
    0.6826   -4.5427    0.5281 N   0  0  0  0  0  0  0  0  0  0  0  0
    4.0774   -8.8211   -3.6564 O   0  5  0  0  0  0  0  0  0  0  0  0
    0.8372   -6.8024   -0.1432 O   0  0  0  0  0  0  0  0  0  0  0  0
    3.1895  -10.8967   -3.6119 O   0  0  0  0  0  0  0  0  0  0  0  0
   -0.4282   -0.3694   -2.4102 H   0  0  0  0  0  0  0  0  0  0  0  0
    0.0012    0.0003   -0.0007 H   0  0  0  0  0  0  0  0  0  0  0  0
   -1.4822   -9.9886   -2.7529 H   0  0  0  0  0  0  0  0  0  0  0  0
   -0.3291   -2.6545   -3.3823 H   0  0  0  0  0  0  0  0  0  0  0  0
   -1.7648   -7.5440   -2.5734 H   0  0  0  0  0  0  0  0  0  0  0  0
    0.7486  -10.9594   -3.1908 H   0  0  0  0  0  0  0  0  0  0  0  0
    0.5403   -1.9161    1.4974 H   0  0  0  0  0  0  0  0  0  0  0  0
    2.4546   -7.0105   -3.2780 H   0  0  0  0  0  0  0  0  0  0  0  0
   -0.0527   -5.1412   -3.7249 H   0  0  0  0  0  0  0  0  0  0  0  0
    0.8882   -4.6244    1.5170 H   0  0  0  0  0  0  0  0  0  0  0  0
  1  2  1  0  0  0  0
  1  4  2  0  0  0  0
  2  7  2  0  0  0  0
  3  5  2  0  0  0  0
  3  6  1  0  0  0  0
  4  9  1  0  0  0  0
  5 10  1  0  0  0  0
  6 11  2  0  0  0  0
  7 12  1  0  0  0  0
  8 10  2  0  0  0  0
  8 11  1  0  0  0  0
  9 12  2  0  0  0  0
  9 13  1  0  0  0  0
 10 15  1  0  0  0  0
 11 16  1  0  0  0  0
 12 17  1  0  0  0  0
 13 14  1  0  0  0  0
 13 15  2  0  0  0  0
 14 17  1  0  0  0  0
 14 19  2  0  0  0  0
 16 18  1  0  0  0  0
 16 20  2  0  0  0  0
  1 21  1  0  0  0  0
  2 22  1  0  0  0  0
  3 23  1  0  0  0  0
  4 24  1  0  0  0  0
  5 25  1  0  0  0  0
  6 26  1  0  0  0  0
  7 27  1  0  0  0  0
  8 28  1  0  0  0  0
 15 29  1  0  0  0  0
 17 30  1  0  0  0  0
M  CHG  1  18  -1
M  END
$$$$
