@<TRIPOS>MOLECULE
AVX17369_3
   35    37     0     0     0
SMALL
NO_CHARGES

@<TRIPOS>ATOM
      1 C1          2.2812    1.1728   -0.9445 C.ar      1 MOL         0.0000
      2 C2          2.1152   -0.0863   -1.5408 C.ar      1 MOL         0.0000
      3 C3         -4.5280   -3.9543   -1.3011 C.ar      1 MOL         0.0000
      4 C4         -5.3330   -4.0291   -0.1645 C.ar      1 MOL         0.0000
      5 C5          1.2883    1.7046   -0.1203 C.ar      1 MOL         0.0000
      6 C6          0.9541   -0.8316   -1.3212 C.ar      1 MOL         0.0000
      7 C7         -3.2423   -3.4208   -1.2112 C.ar      1 MOL         0.0000
      8 C8         -3.5669   -3.0366    1.1518 C.ar      1 MOL         0.0000
      9 C9         -4.8525   -3.5702    1.0620 C.ar      1 MOL         0.0000
     10 C10         0.1458    0.9529    0.1025 C.ar      1 MOL         0.0000
     11 C11        -0.0234   -0.3057   -0.4903 C.ar      1 MOL         0.0000
     12 C12        -2.7618   -2.9619    0.0152 C.ar      1 MOL         0.0000
     13 C13        -5.7016   -3.6486    2.2614 C.2       1 MOL         0.0000
     14 C14        -1.0525    1.3347    0.9190 C.3       1 MOL         0.0000
     15 C15        -1.3674   -0.8830   -0.1311 C.3       1 MOL         0.0000
     16 C16        -1.7320   -0.0326    1.1107 C.3       1 MOL         0.0000
     17 C17        -1.3739   -2.3856    0.1123 C.3       1 MOL         0.0000
     18 O1         -5.2336   -3.2182    3.3815 O.co2     1 MOL         0.0000
     19 O2         -6.8849   -4.1453    2.1520 O.co2     1 MOL         0.0000
     20 O3         -1.2353   -0.6403    2.3037 O.3       1 MOL         0.0000
     21 H1          3.1883    1.7409   -1.1319 H         1 MOL         0.0000
     22 H2          2.8953   -0.4814   -2.1859 H         1 MOL         0.0000
     23 H3         -4.9023   -4.3119   -2.2558 H         1 MOL         0.0000
     24 H4         -6.3332   -4.4471   -0.2454 H         1 MOL         0.0000
     25 H5          1.4130    2.6827    0.3318 H         1 MOL         0.0000
     26 H6          0.8292   -1.7967   -1.8000 H         1 MOL         0.0000
     27 H7         -2.6220   -3.3666   -2.1019 H         1 MOL         0.0000
     28 H8         -3.1908   -2.6785    2.1074 H         1 MOL         0.0000
     29 H9         -0.7632    1.7944    1.8687 H         1 MOL         0.0000
     30 H10        -1.6848    2.0132    0.3371 H         1 MOL         0.0000
     31 H11        -2.0602   -0.6393   -0.9444 H         1 MOL         0.0000
     32 H12        -2.8161    0.0710    1.2272 H         1 MOL         0.0000
     33 H13        -0.9520   -2.6014    1.1010 H         1 MOL         0.0000
     34 H14        -0.7165   -2.8801   -0.6126 H         1 MOL         0.0000
     35 H15        -1.4541   -0.0369    3.0296 H         1 MOL         0.0000
@<TRIPOS>BOND
     1    1    2 ar
     2    1    5 ar
     3    2    6 ar
     4    3    4 ar
     5    3    7 ar
     6    4    9 ar
     7    5   10 ar
     8    6   11 ar
     9    7   12 ar
    10    8    9 ar
    11    8   12 ar
    12    9   13 1
    13   10   11 ar
    14   10   14 1
    15   11   15 1
    16   12   17 1
    17   13   18 1
    18   13   19 2
    19   14   16 1
    20   15   16 1
    21   15   17 1
    22   16   20 1
    23    1   21 1
    24    2   22 1
    25    3   23 1
    26    4   24 1
    27    5   25 1
    28    6   26 1
    29    7   27 1
    30    8   28 1
    31   14   29 1
    32   14   30 1
    33   15   31 1
    34   16   32 1
    35   17   33 1
    36   17   34 1
    37   20   35 1
