@<TRIPOS>MOLECULE
AVX17369_2
   35    37     0     0     0
SMALL
NO_CHARGES

@<TRIPOS>ATOM
      1 C1          2.3687    1.2139   -0.5172 C.ar      1 MOL         0.0000
      2 C2          2.3964   -0.0723   -1.0778 C.ar      1 MOL         0.0000
      3 C3         -2.8473   -5.4159    0.5092 C.ar      1 MOL         0.0000
      4 C4         -3.9843   -5.1958    1.2866 C.ar      1 MOL         0.0000
      5 C5          1.2530    1.6549    0.1973 C.ar      1 MOL         0.0000
      6 C6          1.3094   -0.9362   -0.9302 C.ar      1 MOL         0.0000
      7 C7         -1.8286   -4.4636    0.4782 C.ar      1 MOL         0.0000
      8 C8         -3.0839   -3.0710    2.0018 C.ar      1 MOL         0.0000
      9 C9         -4.1026   -4.0233    2.0329 C.ar      1 MOL         0.0000
     10 C10         0.1745    0.7958    0.3290 C.ar      1 MOL         0.0000
     11 C11         0.2036   -0.4899   -0.2235 C.ar      1 MOL         0.0000
     12 C12        -1.9469   -3.2912    1.2245 C.ar      1 MOL         0.0000
     13 C13        -5.3022   -3.7904    2.8531 C.2       1 MOL         0.0000
     14 C14        -1.1042    1.0375    1.0713 C.3       1 MOL         0.0000
     15 C15        -1.0641   -1.2425    0.0794 C.3       1 MOL         0.0000
     16 C16        -1.9958   -0.0886    0.5171 C.3       1 MOL         0.0000
     17 C17        -0.8479   -2.2635    1.1909 C.3       1 MOL         0.0000
     18 O1         -5.3862   -2.6997    3.5329 O.co2     1 MOL         0.0000
     19 O2         -6.2287   -4.6850    2.8645 O.co2     1 MOL         0.0000
     20 O3         -2.6936    0.3909   -0.6363 O.3       1 MOL         0.0000
     21 H1          3.2263    1.8704   -0.6377 H         1 MOL         0.0000
     22 H2          3.2749   -0.3995   -1.6274 H         1 MOL         0.0000
     23 H3         -2.7554   -6.3290   -0.0716 H         1 MOL         0.0000
     24 H4         -4.7722   -5.9445    1.3040 H         1 MOL         0.0000
     25 H5          1.2373    2.6463    0.6368 H         1 MOL         0.0000
     26 H6          1.3364   -1.9325   -1.3584 H         1 MOL         0.0000
     27 H7         -0.9463   -4.6436   -0.1302 H         1 MOL         0.0000
     28 H8         -3.1747   -2.1564    2.5833 H         1 MOL         0.0000
     29 H9         -0.9283    0.9100    2.1441 H         1 MOL         0.0000
     30 H10        -1.5092    2.0318    0.8615 H         1 MOL         0.0000
     31 H11        -1.4383   -1.7325   -0.8271 H         1 MOL         0.0000
     32 H12        -2.7549   -0.4015    1.2413 H         1 MOL         0.0000
     33 H13        -0.7909   -1.7485    2.1562 H         1 MOL         0.0000
     34 H14         0.1196   -2.7585    1.0514 H         1 MOL         0.0000
     35 H15        -3.2384   -0.3459   -0.9491 H         1 MOL         0.0000
@<TRIPOS>BOND
     1    1    2 ar
     2    1    5 ar
     3    2    6 ar
     4    3    4 ar
     5    3    7 ar
     6    4    9 ar
     7    5   10 ar
     8    6   11 ar
     9    7   12 ar
    10    8    9 ar
    11    8   12 ar
    12    9   13 1
    13   10   11 ar
    14   10   14 1
    15   11   15 1
    16   12   17 1
    17   13   18 1
    18   13   19 2
    19   14   16 1
    20   15   16 1
    21   15   17 1
    22   16   20 1
    23    1   21 1
    24    2   22 1
    25    3   23 1
    26    4   24 1
    27    5   25 1
    28    6   26 1
    29    7   27 1
    30    8   28 1
    31   14   29 1
    32   14   30 1
    33   15   31 1
    34   16   32 1
    35   17   33 1
    36   17   34 1
    37   20   35 1
