AVX17558_3
  -OEChem-04011314543D

 53 56  0     1  0  0  0  0  0999 V2000
    0.8227    2.4972    0.7613 C   0  0  0  0  0  0  0  0  0  0  0  0
   -0.4669    2.5713    0.2131 C   0  0  0  0  0  0  0  0  0  0  0  0
    1.5390    1.2996    0.7338 C   0  0  0  0  0  0  0  0  0  0  0  0
   -1.0594    1.4490   -0.3711 C   0  0  0  0  0  0  0  0  0  0  0  0
   -2.4796   -3.8559   -1.4741 C   0  0  0  0  0  0  0  0  0  0  0  0
   -2.8336   -4.8738   -2.3629 C   0  0  0  0  0  0  0  0  0  0  0  0
   -3.0745   -2.1579   -3.1146 C   0  0  0  0  0  0  0  0  0  0  0  0
    0.9389    0.1885    0.1645 C   0  0  0  0  0  0  0  0  0  0  0  0
   -0.3497    0.2584   -0.3845 C   0  0  0  0  0  0  0  0  0  0  0  0
   -2.5995   -2.5057   -1.8477 C   0  0  0  0  0  0  0  0  0  0  0  0
   -3.2998   -4.5036   -3.6076 C   0  0  0  0  0  0  0  0  0  0  0  0
   -3.4172   -3.1820   -3.9733 C   0  0  0  0  0  0  0  0  0  0  0  0
   -3.2102   -0.7525   -3.5295 C   0  0  0  0  0  0  0  0  0  0  0  0
    0.1254   -3.7716    1.4992 C   0  0  0  0  0  0  0  0  0  0  0  0
    1.5227   -1.1831   -0.0012 C   0  0  0  0  0  0  0  0  0  0  0  0
   -4.0662   -4.4145   -5.6292 C   0  0  0  0  0  0  0  0  0  0  0  0
   -0.7357   -1.0684   -0.9834 C   0  0  1  0  0  0  0  0  0  0  0  0
    0.2556   -2.0223   -0.2630 C   0  0  2  0  0  0  0  0  0  0  0  0
   -2.2053   -1.4449   -0.8546 C   0  0  0  0  0  0  0  0  0  0  0  0
   -0.5744   -4.0678    2.8140 C   0  0  0  0  0  0  0  0  0  0  0  0
   -0.1648   -5.4153    3.4032 C   0  0  0  0  0  0  0  0  0  0  0  0
   -0.9141   -5.6968    4.6966 C   0  0  0  0  0  0  0  0  0  0  0  0
   -0.2619   -2.5453    0.9850 N   0  0  0  0  0  0  0  0  0  0  0  0
   -0.4518   -6.9905    5.2543 N   0  3  0  0  0  0  0  0  0  0  0  0
   -4.3230   -0.1443   -3.3044 O   0  5  0  0  0  0  0  0  0  0  0  0
   -2.2119   -0.1767   -4.1046 O   0  0  0  0  0  0  0  0  0  0  0  0
    0.9286   -4.5393    0.9763 O   0  0  0  0  0  0  0  0  0  0  0  0
   -3.6905   -5.3507   -4.5983 O   0  0  0  0  0  0  0  0  0  0  0  0
   -3.8957   -3.0364   -5.2389 O   0  0  0  0  0  0  0  0  0  0  0  0
    1.2689    3.3828    1.2056 H   0  0  0  0  0  0  0  0  0  0  0  0
   -1.0066    3.5142    0.2372 H   0  0  0  0  0  0  0  0  0  0  0  0
    2.5395    1.2462    1.1494 H   0  0  0  0  0  0  0  0  0  0  0  0
   -2.0502    1.5210   -0.8061 H   0  0  0  0  0  0  0  0  0  0  0  0
   -2.1094   -4.1181   -0.4858 H   0  0  0  0  0  0  0  0  0  0  0  0
   -2.7428   -5.9160   -2.0788 H   0  0  0  0  0  0  0  0  0  0  0  0
    2.1846   -1.1908   -0.8739 H   0  0  0  0  0  0  0  0  0  0  0  0
    2.0709   -1.5091    0.8880 H   0  0  0  0  0  0  0  0  0  0  0  0
   -3.4531   -4.6059   -6.5173 H   0  0  0  0  0  0  0  0  0  0  0  0
   -5.1190   -4.5789   -5.8858 H   0  0  0  0  0  0  0  0  0  0  0  0
   -0.4715   -1.0323   -2.0492 H   0  0  0  0  0  0  0  0  0  0  0  0
    0.4807   -2.8974   -0.8823 H   0  0  0  0  0  0  0  0  0  0  0  0
   -2.8281   -0.5541   -0.9974 H   0  0  0  0  0  0  0  0  0  0  0  0
   -2.4080   -1.7972    0.1636 H   0  0  0  0  0  0  0  0  0  0  0  0
   -1.6566   -4.0504    2.6372 H   0  0  0  0  0  0  0  0  0  0  0  0
   -0.3344   -3.2625    3.5187 H   0  0  0  0  0  0  0  0  0  0  0  0
    0.9169   -5.4235    3.5887 H   0  0  0  0  0  0  0  0  0  0  0  0
   -0.3635   -6.2120    2.6748 H   0  0  0  0  0  0  0  0  0  0  0  0
   -0.7187   -4.9354    5.4575 H   0  0  0  0  0  0  0  0  0  0  0  0
   -1.9921   -5.7880    4.5348 H   0  0  0  0  0  0  0  0  0  0  0  0
   -0.9612   -1.9949    1.4707 H   0  0  0  0  0  0  0  0  0  0  0  0
   -0.9149   -7.1927    6.1470 H   0  0  0  0  0  0  0  0  0  0  0  0
    0.5607   -6.9781    5.4199 H   0  0  0  0  0  0  0  0  0  0  0  0
   -0.6568   -7.7627    4.6105 H   0  0  0  0  0  0  0  0  0  0  0  0
  1  2  1  0  0  0  0
  1  3  2  0  0  0  0
  2  4  2  0  0  0  0
  3  8  1  0  0  0  0
  4  9  1  0  0  0  0
  5  6  2  0  0  0  0
  5 10  1  0  0  0  0
  6 11  1  0  0  0  0
  7 10  2  0  0  0  0
  7 12  1  0  0  0  0
  7 13  1  0  0  0  0
  8  9  2  0  0  0  0
  8 15  1  0  0  0  0
  9 17  1  0  0  0  0
 10 19  1  0  0  0  0
 11 12  2  0  0  0  0
 11 28  1  0  0  0  0
 12 29  1  0  0  0  0
 13 25  1  0  0  0  0
 13 26  2  0  0  0  0
 14 20  1  0  0  0  0
 14 23  1  0  0  0  0
 14 27  2  0  0  0  0
 15 18  1  0  0  0  0
 16 28  1  0  0  0  0
 16 29  1  0  0  0  0
 17 18  1  0  0  0  0
 17 19  1  0  0  0  0
 18 23  1  0  0  0  0
 20 21  1  0  0  0  0
 21 22  1  0  0  0  0
 22 24  1  0  0  0  0
  1 30  1  0  0  0  0
  2 31  1  0  0  0  0
  3 32  1  0  0  0  0
  4 33  1  0  0  0  0
  5 34  1  0  0  0  0
  6 35  1  0  0  0  0
 15 36  1  0  0  0  0
 15 37  1  0  0  0  0
 16 38  1  0  0  0  0
 16 39  1  0  0  0  0
 17 40  1  0  0  0  0
 18 41  1  0  0  0  0
 19 42  1  0  0  0  0
 19 43  1  0  0  0  0
 20 44  1  0  0  0  0
 20 45  1  0  0  0  0
 21 46  1  0  0  0  0
 21 47  1  0  0  0  0
 22 48  1  0  0  0  0
 22 49  1  0  0  0  0
 23 50  1  0  0  0  0
 24 51  1  0  0  0  0
 24 52  1  0  0  0  0
 24 53  1  0  0  0  0
M  CHG  2  24   1  25  -1
M  END
$$$$
