@<TRIPOS>MOLECULE
AVX17389_0
   24    25     0     0     0
SMALL
NO_CHARGES

@<TRIPOS>ATOM
      1 C1          0.8726    1.2794    1.5062 C.ar      1 MOL         0.0000
      2 C2         -0.1481    0.4787    0.9641 C.ar      1 MOL         0.0000
      3 C3          0.7042    1.9049    2.7438 C.ar      1 MOL         0.0000
      4 C4         -1.3491    0.2943    1.6535 C.ar      1 MOL         0.0000
      5 C5         -0.4910    1.7067    3.4041 C.ar      1 MOL         0.0000
      6 C6         -1.4901    0.9230    2.8735 C.ar      1 MOL         0.0000
      7 C7         -2.4045   -0.5328    1.0940 C.2       1 MOL         0.0000
      8 C8         -4.9545   -2.5685    2.8873 C.2       1 MOL         0.0000
      9 C9         -2.1588    1.6916    4.7825 C.3       1 MOL         0.0000
     10 C10        -4.3192   -2.0720    1.5993 C.3       1 MOL         0.0000
     11 N1         -3.2411   -1.1966    1.9997 N.am      1 MOL         0.0000
     12 O1         -5.4225   -1.6662    3.6378 O.co2     1 MOL         0.0000
     13 O2         -2.5302   -0.6499   -0.1386 O.2       1 MOL         0.0000
     14 O3         -4.9462   -3.8225    3.0418 O.co2     1 MOL         0.0000
     15 O4         -0.8328    2.2326    4.6117 O.3       1 MOL         0.0000
     16 O5         -2.5825    0.8600    3.6827 O.3       1 MOL         0.0000
     17 H1          1.8008    1.4114    0.9566 H         1 MOL         0.0000
     18 H2          0.0101    0.0043   -0.0017 H         1 MOL         0.0000
     19 H3          1.4898    2.5219    3.1649 H         1 MOL         0.0000
     20 H4         -2.1784    1.0945    5.7014 H         1 MOL         0.0000
     21 H5         -2.8663    2.5222    4.8874 H         1 MOL         0.0000
     22 H6         -5.0458   -1.5267    0.9891 H         1 MOL         0.0000
     23 H7         -3.9323   -2.9077    1.0079 H         1 MOL         0.0000
     24 H8         -3.0563   -1.1173    2.9944 H         1 MOL         0.0000
@<TRIPOS>BOND
     1    1    2 ar
     2    1    3 ar
     3    2    4 ar
     4    3    5 ar
     5    4    6 ar
     6    4    7 1
     7    5    6 ar
     8    5   15 1
     9    6   16 1
    10    7   11 am
    11    7   13 2
    12    8   10 1
    13    8   12 1
    14    8   14 2
    15    9   15 1
    16    9   16 1
    17   10   11 1
    18    1   17 1
    19    2   18 1
    20    3   19 1
    21    9   20 1
    22    9   21 1
    23   10   22 1
    24   10   23 1
    25   11   24 1
