@<TRIPOS>MOLECULE
AVX101120_1
   71    74     0     0     0
SMALL
NO_CHARGES

@<TRIPOS>ATOM
      1 C1          5.5521    6.1086    2.4242 C.ar      1 MOL         0.0000
      2 C2          4.2588    5.8648    2.8864 C.ar      1 MOL         0.0000
      3 C3          5.9647    5.5860    1.1985 C.ar      1 MOL         0.0000
      4 C4          0.1842   -4.2441   -1.1368 C.ar      1 MOL         0.0000
      5 C5          3.3782    5.0983    2.1231 C.ar      1 MOL         0.0000
      6 C6          5.0841    4.8195    0.4351 C.ar      1 MOL         0.0000
      7 C7          2.9819    3.7772   -1.2851 C.ar      1 MOL         0.0000
      8 C8         -0.0626   -2.8766   -1.2579 C.ar      1 MOL         0.0000
      9 C9          2.1012    3.0111   -2.0488 C.ar      1 MOL         0.0000
     10 C10        -4.1308    1.4342   -0.1920 C.ar      1 MOL         0.0000
     11 C11        -3.1962   -0.6716    0.5352 C.ar      1 MOL         0.0000
     12 C12         0.0458   -5.0787   -2.2459 C.ar      1 MOL         0.0000
     13 C13        -4.9704    0.7564   -1.0759 C.ar      1 MOL         0.0000
     14 C14        -4.0358   -1.3495   -0.3487 C.ar      1 MOL         0.0000
     15 C15         1.8916    3.0186    0.7330 C.ar      1 MOL         0.0000
     16 C16         3.7909    4.5757    0.8974 C.ar      1 MOL         0.0000
     17 C17         2.8771    3.7809    0.1058 C.ar      1 MOL         0.0000
     18 C18         1.0109    2.2525   -0.0307 C.ar      1 MOL         0.0000
     19 C19        -0.5864   -3.1783   -3.5971 C.ar      1 MOL         0.0000
     20 C20        -3.2437    0.7202    0.6135 C.ar      1 MOL         0.0000
     21 C21         1.1158    2.2488   -1.4217 C.ar      1 MOL         0.0000
     22 C22        -0.4479   -2.3437   -2.4880 C.ar      1 MOL         0.0000
     23 C23        -4.9229   -0.6354   -1.1543 C.ar      1 MOL         0.0000
     24 C24        -0.3396   -4.5458   -3.4760 C.ar      1 MOL         0.0000
     25 C25        -0.0090    1.4655    0.6493 C.2       1 MOL         0.0000
     26 C26        -0.9974   -2.6196   -4.9005 C.2       1 MOL         0.0000
     27 C27         1.6814   -0.3762   -3.0887 C.3       1 MOL         0.0000
     28 C28        -5.6426   -2.7196   -2.0452 C.3       1 MOL         0.0000
     29 C29        -0.1977   -6.7617   -4.3277 C.3       1 MOL         0.0000
     30 C30        -2.3404    1.4496    1.5655 C.3       1 MOL         0.0000
     31 C31         0.1819    1.4342   -2.2673 C.3       1 MOL         0.0000
     32 C32        -0.7077   -0.8694   -2.5880 C.3       1 MOL         0.0000
     33 N1         -1.2388    2.0895    0.8829 N.am      1 MOL         0.0000
     34 N2          0.4915   -0.0354   -2.2377 N.4       1 MOL         0.0000
     35 O1         -2.2516   -2.5617   -5.1771 O.co2     1 MOL         0.0000
     36 O2          0.2332    0.3026    1.0139 O.2       1 MOL         0.0000
     37 O3         -0.0856   -2.2122   -5.7102 O.co2     1 MOL         0.0000
     38 O4         -5.7431   -1.2967   -2.0159 O.3       1 MOL         0.0000
     39 O5         -0.4709   -5.3794   -4.5463 O.3       1 MOL         0.0000
     40 H1          6.2370    6.7068    3.0179 H         1 MOL         0.0000
     41 H2          3.9369    6.2730    3.8400 H         1 MOL         0.0000
     42 H3          6.9711    5.7766    0.8373 H         1 MOL         0.0000
     43 H4          0.4853   -4.6587   -0.1793 H         1 MOL         0.0000
     44 H5          2.3732    4.9174    2.4971 H         1 MOL         0.0000
     45 H6          5.4197    4.4192   -0.5186 H         1 MOL         0.0000
     46 H7          3.7447    4.3662   -1.7887 H         1 MOL         0.0000
     47 H8          0.0479   -2.2343   -0.3883 H         1 MOL         0.0000
     48 H9          2.1911    3.0150   -3.1320 H         1 MOL         0.0000
     49 H10        -4.1745    2.5187   -0.1376 H         1 MOL         0.0000
     50 H11        -2.5080   -1.2363    1.1590 H         1 MOL         0.0000
     51 H12         0.2394   -6.1433   -2.1437 H         1 MOL         0.0000
     52 H13        -5.6596    1.3183   -1.7007 H         1 MOL         0.0000
     53 H14        -3.9942   -2.4336   -0.4048 H         1 MOL         0.0000
     54 H15         1.8071    3.0193    1.8182 H         1 MOL         0.0000
     55 H16         1.4316   -0.1356   -4.1237 H         1 MOL         0.0000
     56 H17         2.5247    0.2224   -2.7390 H         1 MOL         0.0000
     57 H18         1.8817   -1.4429   -2.9712 H         1 MOL         0.0000
     58 H19        -6.3510   -3.1208   -2.7742 H         1 MOL         0.0000
     59 H20        -5.8585   -3.1216   -1.0521 H         1 MOL         0.0000
     60 H21        -4.6270   -2.9984   -2.3361 H         1 MOL         0.0000
     61 H22        -0.3397   -7.3138   -5.2599 H         1 MOL         0.0000
     62 H23        -0.8683   -7.1491   -3.5565 H         1 MOL         0.0000
     63 H24         0.8375   -6.8713   -3.9961 H         1 MOL         0.0000
     64 H25        -2.8951    2.2223    2.1087 H         1 MOL         0.0000
     65 H26        -1.9206    0.7659    2.3108 H         1 MOL         0.0000
     66 H27        -0.8547    1.5440   -1.9309 H         1 MOL         0.0000
     67 H28         0.2267    1.7440   -3.3170 H         1 MOL         0.0000
     68 H29        -1.0010   -0.5871   -3.6048 H         1 MOL         0.0000
     69 H30        -1.5126   -0.5628   -1.9113 H         1 MOL         0.0000
     70 H31        -1.3610    3.0620    0.6201 H         1 MOL         0.0000
     71 H32         0.7428   -0.2676   -1.2673 H         1 MOL         0.0000
@<TRIPOS>BOND
     1    1    2 ar
     2    1    3 ar
     3    2    5 ar
     4    3    6 ar
     5    4    8 ar
     6    4   12 ar
     7    5   16 ar
     8    6   16 ar
     9    7    9 ar
    10    7   17 ar
    11    8   22 ar
    12    9   21 ar
    13   10   13 ar
    14   10   20 ar
    15   11   14 ar
    16   11   20 ar
    17   12   24 ar
    18   13   23 ar
    19   14   23 ar
    20   15   17 ar
    21   15   18 ar
    22   16   17 1
    23   18   21 ar
    24   18   25 1
    25   19   22 ar
    26   19   24 ar
    27   19   26 1
    28   20   30 1
    29   21   31 1
    30   22   32 1
    31   23   38 1
    32   24   39 1
    33   25   33 am
    34   25   36 2
    35   26   35 1
    36   26   37 2
    37   27   34 1
    38   28   38 1
    39   29   39 1
    40   30   33 1
    41   31   34 1
    42   32   34 1
    43    1   40 1
    44    2   41 1
    45    3   42 1
    46    4   43 1
    47    5   44 1
    48    6   45 1
    49    7   46 1
    50    8   47 1
    51    9   48 1
    52   10   49 1
    53   11   50 1
    54   12   51 1
    55   13   52 1
    56   14   53 1
    57   15   54 1
    58   27   55 1
    59   27   56 1
    60   27   57 1
    61   28   58 1
    62   28   59 1
    63   28   60 1
    64   29   61 1
    65   29   62 1
    66   29   63 1
    67   30   64 1
    68   30   65 1
    69   31   66 1
    70   31   67 1
    71   32   68 1
    72   32   69 1
    73   33   70 1
    74   34   71 1
