@<TRIPOS>MOLECULE
AVX17628_1
   56    59     0     0     0
SMALL
NO_CHARGES

@<TRIPOS>ATOM
      1 C1         -0.2552    2.4943    0.4046 C.ar      1 MOL         0.0000
      2 C2         -3.8662   -2.0400    4.4995 C.ar      1 MOL         0.0000
      3 C3         -1.4963    2.7397   -0.1828 C.ar      1 MOL         0.0000
      4 C4          0.3527    1.2477    0.2555 C.ar      1 MOL         0.0000
      5 C5         -3.0963   -3.1382    4.1164 C.ar      1 MOL         0.0000
      6 C6         -4.5974   -1.3336    3.5444 C.ar      1 MOL         0.0000
      7 C7         -2.1296    1.7385   -0.9191 C.ar      1 MOL         0.0000
      8 C8         -0.2806    0.2465   -0.4808 C.ar      1 MOL         0.0000
      9 C9         -3.0573   -3.5299    2.7782 C.ar      1 MOL         0.0000
     10 C10        -4.5584   -1.7253    2.2062 C.ar      1 MOL         0.0000
     11 C11        -6.7158   -8.2884    1.7712 C.ar      1 MOL         0.0000
     12 C12        -7.1044   -8.7782    3.0204 C.ar      1 MOL         0.0000
     13 C13        -4.5232   -9.3219    2.0003 C.ar      1 MOL         0.0000
     14 C14        -1.5218    0.4919   -1.0682 C.ar      1 MOL         0.0000
     15 C15        -3.7884   -2.8234    1.8231 C.ar      1 MOL         0.0000
     16 C16        -5.4326   -8.5588    1.2640 C.ar      1 MOL         0.0000
     17 C17        -6.1877   -9.5291    3.7272 C.ar      1 MOL         0.0000
     18 C18        -4.9317   -9.7937    3.2308 C.ar      1 MOL         0.0000
     19 C19        -3.1747   -9.6197    1.4914 C.2       1 MOL         0.0000
     20 C20        -2.6227   -2.5533   -0.3874 C.2       1 MOL         0.0000
     21 C21        -4.6264   -5.5672    0.1577 C.2       1 MOL         0.0000
     22 C22        -5.1156  -10.7306    5.1725 C.3       1 MOL         0.0000
     23 C23        -2.2030   -0.5863   -1.8604 C.3       1 MOL         0.0000
     24 C24        -5.0633   -8.0127   -0.0777 C.3       1 MOL         0.0000
     25 C25        -3.7464   -3.2470    0.3733 C.3       1 MOL         0.0000
     26 N1         -3.0598   -1.4055   -1.0337 N.am      1 MOL         0.0000
     27 N2         -4.1786   -6.8812    0.0199 N.am      1 MOL         0.0000
     28 N3         -3.5621   -4.6719    0.2288 N.am      1 MOL         0.0000
     29 O1         -2.9987  -10.6844    0.7882 O.co2     1 MOL         0.0000
     30 O2         -2.2148   -8.8062    1.7661 O.co2     1 MOL         0.0000
     31 O3         -1.4785   -3.0001   -0.4402 O.2       1 MOL         0.0000
     32 O4         -5.8115   -5.2407    0.2105 O.2       1 MOL         0.0000
     33 O5         -6.3871  -10.0862    4.9526 O.3       1 MOL         0.0000
     34 O6         -4.1875  -10.5495    4.0834 O.3       1 MOL         0.0000
     35 H1          0.2384    3.2744    0.9768 H         1 MOL         0.0000
     36 H2         -3.8976   -1.7360    5.5417 H         1 MOL         0.0000
     37 H3         -1.9693    3.7106   -0.0678 H         1 MOL         0.0000
     38 H4          1.3195    1.0566    0.7118 H         1 MOL         0.0000
     39 H5         -2.5278   -3.6890    4.8601 H         1 MOL         0.0000
     40 H6         -5.1978   -0.4792    3.8425 H         1 MOL         0.0000
     41 H7         -3.0966    1.9387   -1.3731 H         1 MOL         0.0000
     42 H8          0.2005   -0.7217   -0.5915 H         1 MOL         0.0000
     43 H9         -2.4544   -4.3866    2.4889 H         1 MOL         0.0000
     44 H10        -5.1311   -1.1688    1.4690 H         1 MOL         0.0000
     45 H11        -7.4179   -7.6938    1.1915 H         1 MOL         0.0000
     46 H12        -8.0928   -8.5722    3.4150 H         1 MOL         0.0000
     47 H13        -4.6685  -10.3221    6.0860 H         1 MOL         0.0000
     48 H14        -5.2860  -11.8042    5.3134 H         1 MOL         0.0000
     49 H15        -2.8177   -0.1510   -2.6559 H         1 MOL         0.0000
     50 H16        -1.4704   -1.2447   -2.3389 H         1 MOL         0.0000
     51 H17        -4.5617   -8.7753   -0.6875 H         1 MOL         0.0000
     52 H18        -5.9514   -7.6900   -0.6359 H         1 MOL         0.0000
     53 H19        -4.7002   -3.0235   -0.1197 H         1 MOL         0.0000
     54 H20        -4.0276   -1.1146   -0.9317 H         1 MOL         0.0000
     55 H21        -3.1754   -7.0484   -0.0135 H         1 MOL         0.0000
     56 H22        -2.6149   -5.0371    0.2236 H         1 MOL         0.0000
@<TRIPOS>BOND
     1    1    3 ar
     2    1    4 ar
     3    2    5 ar
     4    2    6 ar
     5    3    7 ar
     6    4    8 ar
     7    5    9 ar
     8    6   10 ar
     9    7   14 ar
    10    8   14 ar
    11    9   15 ar
    12   10   15 ar
    13   11   12 ar
    14   11   16 ar
    15   12   17 ar
    16   13   16 ar
    17   13   18 ar
    18   13   19 1
    19   14   23 1
    20   15   25 1
    21   16   24 1
    22   17   18 ar
    23   17   33 1
    24   18   34 1
    25   19   29 1
    26   19   30 2
    27   20   25 1
    28   20   26 am
    29   20   31 2
    30   21   27 am
    31   21   28 am
    32   21   32 2
    33   22   33 1
    34   22   34 1
    35   23   26 1
    36   24   27 1
    37   25   28 1
    38    1   35 1
    39    2   36 1
    40    3   37 1
    41    4   38 1
    42    5   39 1
    43    6   40 1
    44    7   41 1
    45    8   42 1
    46    9   43 1
    47   10   44 1
    48   11   45 1
    49   12   46 1
    50   22   47 1
    51   22   48 1
    52   23   49 1
    53   23   50 1
    54   24   51 1
    55   24   52 1
    56   25   53 1
    57   26   54 1
    58   27   55 1
    59   28   56 1
