AVX17560_1
  -OEChem-04011314543D

 54 55  0     1  0  0  0  0  0999 V2000
   -2.5816    2.6097   -1.4340 C   0  0  0  0  0  0  0  0  0  0  0  0
   -2.8069    3.5984   -2.3948 C   0  0  0  0  0  0  0  0  0  0  0  0
   -3.1356    0.8641   -3.0384 C   0  0  0  0  0  0  0  0  0  0  0  0
   -2.7449    1.2504   -1.7539 C   0  0  0  0  0  0  0  0  0  0  0  0
   -3.1918    3.1904   -3.6554 C   0  0  0  0  0  0  0  0  0  0  0  0
   -3.3516    1.8599   -3.9686 C   0  0  0  0  0  0  0  0  0  0  0  0
   -3.3125   -0.5518   -3.3987 C   0  0  0  0  0  0  0  0  0  0  0  0
   -1.2012   -3.4499   -1.7150 C   0  0  0  0  0  0  0  0  0  0  0  0
   -3.7966    3.0391   -5.7274 C   0  0  0  0  0  0  0  0  0  0  0  0
    2.0052    0.2419   -1.2482 C   0  0  0  0  0  0  0  0  0  0  0  0
    2.1417    1.4838    0.9196 C   0  0  0  0  0  0  0  0  0  0  0  0
   -2.4894    0.2190   -0.6808 C   0  0  0  0  0  0  0  0  0  0  0  0
   -2.2306   -4.4049   -2.2931 C   0  0  0  0  0  0  0  0  0  0  0  0
   -1.6600   -5.2706   -3.4137 C   0  0  0  0  0  0  0  0  0  0  0  0
   -0.1114    0.7480    0.0855 C   0  0  0  0  0  0  0  0  0  0  0  0
   -0.9724   -1.6815    0.0179 C   0  0  0  0  0  0  0  0  0  0  0  0
   -2.7273   -6.1848   -3.9957 C   0  0  0  0  0  0  0  0  0  0  0  0
    1.3900    0.3982    0.1429 C   0  0  0  0  0  0  0  0  0  0  0  0
   -1.0240   -0.2830   -0.6244 C   0  0  1  0  0  0  0  0  0  0  0  0
   -1.7358   -2.6685   -0.6957 N   0  0  0  0  0  0  0  0  0  0  0  0
   -2.1181   -7.0360   -5.0458 N   0  3  0  0  0  0  0  0  0  0  0  0
   -2.3037   -1.2039   -3.8635 O   0  5  0  0  0  0  0  0  0  0  0  0
   -4.4703   -1.0925   -3.2378 O   0  0  0  0  0  0  0  0  0  0  0  0
   -0.0414   -3.3883   -2.1139 O   0  0  0  0  0  0  0  0  0  0  0  0
   -3.4533    4.0055   -4.7133 O   0  0  0  0  0  0  0  0  0  0  0  0
   -3.7335    1.6754   -5.2617 O   0  0  0  0  0  0  0  0  0  0  0  0
   -2.2769    2.9020   -0.4319 H   0  0  0  0  0  0  0  0  0  0  0  0
   -2.6820    4.6476   -2.1523 H   0  0  0  0  0  0  0  0  0  0  0  0
   -4.8152    3.2437   -6.0766 H   0  0  0  0  0  0  0  0  0  0  0  0
   -3.1055    3.1543   -6.5703 H   0  0  0  0  0  0  0  0  0  0  0  0
    1.8955    1.1593   -1.8362 H   0  0  0  0  0  0  0  0  0  0  0  0
    3.0740    0.0127   -1.1766 H   0  0  0  0  0  0  0  0  0  0  0  0
    1.5363   -0.5765   -1.8023 H   0  0  0  0  0  0  0  0  0  0  0  0
    2.0457    2.4550    0.4225 H   0  0  0  0  0  0  0  0  0  0  0  0
    3.2090    1.2475    0.9842 H   0  0  0  0  0  0  0  0  0  0  0  0
    1.7539    1.5853    1.9390 H   0  0  0  0  0  0  0  0  0  0  0  0
   -3.1648   -0.6261   -0.8709 H   0  0  0  0  0  0  0  0  0  0  0  0
   -2.7875    0.6205    0.2964 H   0  0  0  0  0  0  0  0  0  0  0  0
   -3.0731   -3.8127   -2.6702 H   0  0  0  0  0  0  0  0  0  0  0  0
   -2.6019   -5.0411   -1.4807 H   0  0  0  0  0  0  0  0  0  0  0  0
   -0.8248   -5.8694   -3.0285 H   0  0  0  0  0  0  0  0  0  0  0  0
   -1.2472   -4.6283   -4.2021 H   0  0  0  0  0  0  0  0  0  0  0  0
   -0.4758    0.9016    1.1099 H   0  0  0  0  0  0  0  0  0  0  0  0
   -0.2136    1.7178   -0.4181 H   0  0  0  0  0  0  0  0  0  0  0  0
    0.0606   -2.0437    0.0615 H   0  0  0  0  0  0  0  0  0  0  0  0
   -1.3455   -1.6603    1.0460 H   0  0  0  0  0  0  0  0  0  0  0  0
   -3.1441   -6.8597   -3.2424 H   0  0  0  0  0  0  0  0  0  0  0  0
   -3.5346   -5.6213   -4.4727 H   0  0  0  0  0  0  0  0  0  0  0  0
    1.5250   -0.5421    0.6895 H   0  0  0  0  0  0  0  0  0  0  0  0
   -0.6696   -0.3978   -1.6566 H   0  0  0  0  0  0  0  0  0  0  0  0
   -2.7229   -2.7724   -0.4647 H   0  0  0  0  0  0  0  0  0  0  0  0
   -2.4578   -6.7711   -5.9769 H   0  0  0  0  0  0  0  0  0  0  0  0
   -2.3476   -8.0248   -4.8959 H   0  0  0  0  0  0  0  0  0  0  0  0
   -1.0961   -6.9457   -5.0453 H   0  0  0  0  0  0  0  0  0  0  0  0
  1  2  2  0  0  0  0
  1  4  1  0  0  0  0
  2  5  1  0  0  0  0
  3  4  2  0  0  0  0
  3  6  1  0  0  0  0
  3  7  1  0  0  0  0
  4 12  1  0  0  0  0
  5  6  2  0  0  0  0
  5 25  1  0  0  0  0
  6 26  1  0  0  0  0
  7 22  1  0  0  0  0
  7 23  2  0  0  0  0
  8 13  1  0  0  0  0
  8 20  1  0  0  0  0
  8 24  2  0  0  0  0
  9 25  1  0  0  0  0
  9 26  1  0  0  0  0
 10 18  1  0  0  0  0
 11 18  1  0  0  0  0
 12 19  1  0  0  0  0
 13 14  1  0  0  0  0
 14 17  1  0  0  0  0
 15 18  1  0  0  0  0
 15 19  1  0  0  0  0
 16 19  1  0  0  0  0
 16 20  1  0  0  0  0
 17 21  1  0  0  0  0
  1 27  1  0  0  0  0
  2 28  1  0  0  0  0
  9 29  1  0  0  0  0
  9 30  1  0  0  0  0
 10 31  1  0  0  0  0
 10 32  1  0  0  0  0
 10 33  1  0  0  0  0
 11 34  1  0  0  0  0
 11 35  1  0  0  0  0
 11 36  1  0  0  0  0
 12 37  1  0  0  0  0
 12 38  1  0  0  0  0
 13 39  1  0  0  0  0
 13 40  1  0  0  0  0
 14 41  1  0  0  0  0
 14 42  1  0  0  0  0
 15 43  1  0  0  0  0
 15 44  1  0  0  0  0
 16 45  1  0  0  0  0
 16 46  1  0  0  0  0
 17 47  1  0  0  0  0
 17 48  1  0  0  0  0
 18 49  1  0  0  0  0
 19 50  1  0  0  0  0
 20 51  1  0  0  0  0
 21 52  1  0  0  0  0
 21 53  1  0  0  0  0
 21 54  1  0  0  0  0
M  CHG  2  21   1  22  -1
M  END
$$$$
