AVX17629_1
  -OEChem-04011314553D

 63 66  0     1  0  0  0  0  0999 V2000
   -8.9801   -3.7813    4.4486 C   0  0  0  0  0  0  0  0  0  0  0  0
   -1.5935   -1.0231   -2.6175 C   0  0  0  0  0  0  0  0  0  0  0  0
   -9.0165   -4.2226    3.1260 C   0  0  0  0  0  0  0  0  0  0  0  0
   -8.2951   -2.6108    4.7748 C   0  0  0  0  0  0  0  0  0  0  0  0
   -2.0866   -2.2934   -2.9153 C   0  0  0  0  0  0  0  0  0  0  0  0
   -1.7978   -0.4748   -1.3513 C   0  0  0  0  0  0  0  0  0  0  0  0
   -8.3677   -3.4935    2.1294 C   0  0  0  0  0  0  0  0  0  0  0  0
   -7.6463   -1.8817    3.7782 C   0  0  0  0  0  0  0  0  0  0  0  0
   -2.7841   -3.0155   -1.9469 C   0  0  0  0  0  0  0  0  0  0  0  0
   -2.4953   -1.1968   -0.3829 C   0  0  0  0  0  0  0  0  0  0  0  0
   -2.4284  -10.0503    1.2154 C   0  0  0  0  0  0  0  0  0  0  0  0
   -3.0500  -11.1092    1.8815 C   0  0  0  0  0  0  0  0  0  0  0  0
   -2.8146   -8.5739    3.1126 C   0  0  0  0  0  0  0  0  0  0  0  0
   -7.6826   -2.3230    2.4555 C   0  0  0  0  0  0  0  0  0  0  0  0
   -2.9885   -2.4672   -0.6807 C   0  0  0  0  0  0  0  0  0  0  0  0
   -2.3113   -8.7899    1.8274 C   0  0  0  0  0  0  0  0  0  0  0  0
   -3.5384  -10.8697    3.1495 C   0  0  0  0  0  0  0  0  0  0  0  0
   -3.4238   -9.6360    3.7486 C   0  0  0  0  0  0  0  0  0  0  0  0
   -2.7071   -7.2794    3.7693 C   0  0  0  0  0  0  0  0  0  0  0  0
   -5.2410   -2.9662    0.3170 C   0  0  0  0  0  0  0  0  0  0  0  0
   -2.5349   -5.3703    0.8589 C   0  0  0  0  0  0  0  0  0  0  0  0
   -4.4402  -10.9721    5.1137 C   0  0  0  0  0  0  0  0  0  0  0  0
   -5.4039   -5.0985    4.9797 C   0  0  0  0  0  0  0  0  0  0  0  0
   -6.9839   -1.5379    1.3834 C   0  0  0  0  0  0  0  0  0  0  0  0
   -1.6379   -7.6890    1.0731 C   0  0  0  0  0  0  0  0  0  0  0  0
   -3.9646   -5.4928    4.7256 C   0  0  0  0  0  0  0  0  0  0  0  0
   -3.7442   -3.2487    0.3688 C   0  0  1  0  0  0  0  0  0  0  0  0
   -5.6154   -1.9665    1.2040 N   0  0  0  0  0  0  0  0  0  0  0  0
   -2.5783   -6.7308    0.5534 N   0  0  0  0  0  0  0  0  0  0  0  0
   -3.5593   -4.6733    0.2231 N   0  0  0  0  0  0  0  0  0  0  0  0
   -1.6377   -6.7094    4.0199 O   0  0  0  0  0  0  0  0  0  0  0  0
   -6.0129   -3.5928   -0.4063 O   0  0  0  0  0  0  0  0  0  0  0  0
   -1.6974   -4.8518    1.5961 O   0  0  0  0  0  0  0  0  0  0  0  0
   -4.1696  -11.7745    3.9462 O   0  0  0  0  0  0  0  0  0  0  0  0
   -3.9691   -9.6140    4.9952 O   0  0  0  0  0  0  0  0  0  0  0  0
   -3.9382   -6.7680    4.0753 O   0  0  0  0  0  0  0  0  0  0  0  0
   -9.4865   -4.3484    5.2243 H   0  0  0  0  0  0  0  0  0  0  0  0
   -1.0492   -0.4616   -3.3712 H   0  0  0  0  0  0  0  0  0  0  0  0
   -9.5507   -5.1334    2.8717 H   0  0  0  0  0  0  0  0  0  0  0  0
   -8.2675   -2.2663    5.8043 H   0  0  0  0  0  0  0  0  0  0  0  0
   -1.9267   -2.7210   -3.9008 H   0  0  0  0  0  0  0  0  0  0  0  0
   -1.4131    0.5137   -1.1187 H   0  0  0  0  0  0  0  0  0  0  0  0
   -8.4012   -3.8450    1.1015 H   0  0  0  0  0  0  0  0  0  0  0  0
   -7.1150   -0.9709    4.0417 H   0  0  0  0  0  0  0  0  0  0  0  0
   -3.1649   -4.0045   -2.1879 H   0  0  0  0  0  0  0  0  0  0  0  0
   -2.6498   -0.7616    0.6009 H   0  0  0  0  0  0  0  0  0  0  0  0
   -2.0339  -10.2108    0.2149 H   0  0  0  0  0  0  0  0  0  0  0  0
   -3.1418  -12.0827    1.4134 H   0  0  0  0  0  0  0  0  0  0  0  0
   -5.5232  -10.9544    5.2842 H   0  0  0  0  0  0  0  0  0  0  0  0
   -3.9552  -11.4374    5.9793 H   0  0  0  0  0  0  0  0  0  0  0  0
   -5.9594   -5.0230    4.0408 H   0  0  0  0  0  0  0  0  0  0  0  0
   -5.8974   -5.8333    5.6243 H   0  0  0  0  0  0  0  0  0  0  0  0
   -5.4542   -4.1354    5.4984 H   0  0  0  0  0  0  0  0  0  0  0  0
   -7.5008   -1.6495    0.4240 H   0  0  0  0  0  0  0  0  0  0  0  0
   -6.9712   -0.4695    1.6236 H   0  0  0  0  0  0  0  0  0  0  0  0
   -0.9321   -7.1471    1.7161 H   0  0  0  0  0  0  0  0  0  0  0  0
   -1.0622   -8.0800    0.2246 H   0  0  0  0  0  0  0  0  0  0  0  0
   -3.4147   -5.5666    5.6685 H   0  0  0  0  0  0  0  0  0  0  0  0
   -3.4733   -4.7581    4.0807 H   0  0  0  0  0  0  0  0  0  0  0  0
   -3.3712   -3.0057    1.3711 H   0  0  0  0  0  0  0  0  0  0  0  0
   -4.9040   -1.5049    1.7629 H   0  0  0  0  0  0  0  0  0  0  0  0
   -3.3120   -7.0628   -0.0687 H   0  0  0  0  0  0  0  0  0  0  0  0
   -4.1773   -5.1777   -0.4049 H   0  0  0  0  0  0  0  0  0  0  0  0
  1  3  2  0  0  0  0
  1  4  1  0  0  0  0
  2  5  2  0  0  0  0
  2  6  1  0  0  0  0
  3  7  1  0  0  0  0
  4  8  2  0  0  0  0
  5  9  1  0  0  0  0
  6 10  2  0  0  0  0
  7 14  2  0  0  0  0
  8 14  1  0  0  0  0
  9 15  2  0  0  0  0
 10 15  1  0  0  0  0
 11 12  1  0  0  0  0
 11 16  2  0  0  0  0
 12 17  2  0  0  0  0
 13 16  1  0  0  0  0
 13 18  2  0  0  0  0
 13 19  1  0  0  0  0
 14 24  1  0  0  0  0
 15 27  1  0  0  0  0
 16 25  1  0  0  0  0
 17 18  1  0  0  0  0
 17 34  1  0  0  0  0
 18 35  1  0  0  0  0
 19 31  2  0  0  0  0
 19 36  1  0  0  0  0
 20 27  1  0  0  0  0
 20 28  1  0  0  0  0
 20 32  2  0  0  0  0
 21 29  1  0  0  0  0
 21 30  1  0  0  0  0
 21 33  2  0  0  0  0
 22 34  1  0  0  0  0
 22 35  1  0  0  0  0
 23 26  1  0  0  0  0
 24 28  1  0  0  0  0
 25 29  1  0  0  0  0
 26 36  1  0  0  0  0
 27 30  1  0  0  0  0
  1 37  1  0  0  0  0
  2 38  1  0  0  0  0
  3 39  1  0  0  0  0
  4 40  1  0  0  0  0
  5 41  1  0  0  0  0
  6 42  1  0  0  0  0
  7 43  1  0  0  0  0
  8 44  1  0  0  0  0
  9 45  1  0  0  0  0
 10 46  1  0  0  0  0
 11 47  1  0  0  0  0
 12 48  1  0  0  0  0
 22 49  1  0  0  0  0
 22 50  1  0  0  0  0
 23 51  1  0  0  0  0
 23 52  1  0  0  0  0
 23 53  1  0  0  0  0
 24 54  1  0  0  0  0
 24 55  1  0  0  0  0
 25 56  1  0  0  0  0
 25 57  1  0  0  0  0
 26 58  1  0  0  0  0
 26 59  1  0  0  0  0
 27 60  1  0  0  0  0
 28 61  1  0  0  0  0
 29 62  1  0  0  0  0
 30 63  1  0  0  0  0
M  END
$$$$
