@<TRIPOS>MOLECULE
AVX16688_0
   25    27     0     0     0
SMALL
NO_CHARGES

@<TRIPOS>ATOM
      1 C1         -0.1948   -1.2188   -1.7733 C.ar      1 MOL         0.0000
      2 C2          0.0489   -1.0083   -0.4029 C.ar      1 MOL         0.0000
      3 C3          1.0159   -9.1727   -3.4366 C.2       1 MOL         0.0000
      4 C4         -0.1402   -2.5032   -2.3253 C.ar      1 MOL         0.0000
      5 C5          0.3519   -2.0775    0.4422 C.ar      1 MOL         0.0000
      6 C6          1.2563   -7.7972   -3.6677 C.2       1 MOL         0.0000
      7 C7         -0.0411   -9.2334   -2.5585 C.2       1 MOL         0.0000
      8 C8          0.1604   -3.5565   -1.4826 C.ar      1 MOL         0.0000
      9 C9          0.4008   -3.3366   -0.1231 C.ar      1 MOL         0.0000
     10 C10         0.3289   -7.1155   -2.9147 C.2       1 MOL         0.0000
     11 C11         0.3033   -4.9945   -1.6833 C.2       1 MOL         0.0000
     12 C12         0.6440   -5.6207   -0.3620 C.2       1 MOL         0.0000
     13 C13         0.1687   -5.6938   -2.8117 C.2       1 MOL         0.0000
     14 N1          0.6826   -4.5427    0.5281 N.am      1 MOL         0.0000
     15 O1          0.8372   -6.8024   -0.1432 O.2       1 MOL         0.0000
     16 O2         -0.4658   -7.9837   -2.2356 O.3       1 MOL         0.0000
     17 H1         -0.4282   -0.3694   -2.4102 H         1 MOL         0.0000
     18 H2          0.0012    0.0003   -0.0007 H         1 MOL         0.0000
     19 H3          1.5486  -10.0140   -3.8554 H         1 MOL         0.0000
     20 H4         -0.3291   -2.6545   -3.3823 H         1 MOL         0.0000
     21 H5          0.5403   -1.9161    1.4974 H         1 MOL         0.0000
     22 H6          2.0155   -7.3659   -4.3056 H         1 MOL         0.0000
     23 H7         -0.5788  -10.0453   -2.0910 H         1 MOL         0.0000
     24 H8         -0.0527   -5.1412   -3.7249 H         1 MOL         0.0000
     25 H9          0.8882   -4.6244    1.5170 H         1 MOL         0.0000
@<TRIPOS>BOND
     1    1    2 ar
     2    1    4 ar
     3    2    5 ar
     4    3    6 1
     5    3    7 2
     6    4    8 ar
     7    5    9 ar
     8    6   10 2
     9    7   16 1
    10    8    9 ar
    11    8   11 1
    12    9   14 1
    13   10   13 1
    14   10   16 1
    15   11   12 1
    16   11   13 2
    17   12   14 am
    18   12   15 2
    19    1   17 1
    20    2   18 1
    21    3   19 1
    22    4   20 1
    23    5   21 1
    24    6   22 1
    25    7   23 1
    26   13   24 1
    27   14   25 1
