@<TRIPOS>MOLECULE
AVX17287_0
   34    37     0     0     0
SMALL
NO_CHARGES

@<TRIPOS>ATOM
      1 C1         -1.2338    1.7019    0.9624 C.ar      1 MOL         0.0000
      2 C2         -1.2207    0.4862    0.2815 C.ar      1 MOL         0.0000
      3 C3         -2.0717    1.8954    2.0666 C.ar      1 MOL         0.0000
      4 C4         -4.9926    0.6312    6.6842 C.ar      1 MOL         0.0000
      5 C5         -2.0417   -0.5724    0.6805 C.ar      1 MOL         0.0000
      6 C6         -4.7984    0.2352    8.0097 C.ar      1 MOL         0.0000
      7 C7         -4.3734   -0.5834    3.4517 C.2       1 MOL         0.0000
      8 C8         -2.9085    0.8426    2.4873 C.ar      1 MOL         0.0000
      9 C9         -2.7497    1.5743    6.5923 C.ar      1 MOL         0.0000
     10 C10        -3.9741    1.2968    5.9795 C.ar      1 MOL         0.0000
     11 C11        -3.8586    0.6897    3.5356 C.2       1 MOL         0.0000
     12 C12        -2.8742   -0.3645    1.7860 C.ar      1 MOL         0.0000
     13 C13        -3.5804    0.5212    8.5915 C.ar      1 MOL         0.0000
     14 C14        -2.5835    1.1726    7.9018 C.ar      1 MOL         0.0000
     15 C15        -1.6676    2.2686    5.8763 C.2       1 MOL         0.0000
     16 C16        -1.8717    0.7454    9.8999 C.3       1 MOL         0.0000
     17 C17        -4.2341    1.7076    4.5379 C.3       1 MOL         0.0000
     18 N1         -3.7734   -1.2117    2.3935 N.pl3     1 MOL         0.0000
     19 O1         -0.8089    1.5678    5.2203 O.co2     1 MOL         0.0000
     20 O2         -1.6143    3.5544    5.9294 O.co2     1 MOL         0.0000
     21 O3         -3.2120    0.2137    9.8649 O.3       1 MOL         0.0000
     22 O4         -1.4663    1.3549    8.6571 O.3       1 MOL         0.0000
     23 H1         -0.5859    2.5100    0.6336 H         1 MOL         0.0000
     24 H2         -0.5620    0.3577   -0.5736 H         1 MOL         0.0000
     25 H3         -2.0697    2.8487    2.5874 H         1 MOL         0.0000
     26 H4         -5.9427    0.4186    6.1998 H         1 MOL         0.0000
     27 H5         -2.0316   -1.5180    0.1492 H         1 MOL         0.0000
     28 H6         -5.5810   -0.2782    8.5565 H         1 MOL         0.0000
     29 H7         -5.1113   -1.0998    4.0501 H         1 MOL         0.0000
     30 H8         -1.8133    1.4976   10.6950 H         1 MOL         0.0000
     31 H9         -1.1769   -0.0694   10.1343 H         1 MOL         0.0000
     32 H10        -5.3039    1.9862    4.4454 H         1 MOL         0.0000
     33 H11        -3.7092    2.6669    4.3513 H         1 MOL         0.0000
     34 H12        -3.9627   -2.1601    2.1001 H         1 MOL         0.0000
@<TRIPOS>BOND
     1    1    2 ar
     2    1    3 ar
     3    2    5 ar
     4    3    8 ar
     5    4    6 ar
     6    4   10 ar
     7    5   12 ar
     8    6   13 ar
     9    7   11 2
    10    7   18 1
    11    8   11 1
    12    8   12 ar
    13    9   10 ar
    14    9   14 ar
    15    9   15 1
    16   10   17 1
    17   11   17 1
    18   12   18 1
    19   13   14 ar
    20   13   21 1
    21   14   22 1
    22   15   19 1
    23   15   20 2
    24   16   21 1
    25   16   22 1
    26    1   23 1
    27    2   24 1
    28    3   25 1
    29    4   26 1
    30    5   27 1
    31    6   28 1
    32    7   29 1
    33   16   30 1
    34   16   31 1
    35   17   32 1
    36   17   33 1
    37   18   34 1
