AVX17287_0
  -OEChem-04011314523D

 34 37  0     0  0  0  0  0  0999 V2000
   -1.2338    1.7019    0.9624 C   0  0  0  0  0  0  0  0  0  0  0  0
   -1.2207    0.4862    0.2815 C   0  0  0  0  0  0  0  0  0  0  0  0
   -2.0717    1.8954    2.0666 C   0  0  0  0  0  0  0  0  0  0  0  0
   -4.9926    0.6312    6.6842 C   0  0  0  0  0  0  0  0  0  0  0  0
   -2.0417   -0.5724    0.6805 C   0  0  0  0  0  0  0  0  0  0  0  0
   -4.7984    0.2352    8.0097 C   0  0  0  0  0  0  0  0  0  0  0  0
   -4.3734   -0.5834    3.4517 C   0  0  0  0  0  0  0  0  0  0  0  0
   -2.9085    0.8426    2.4873 C   0  0  0  0  0  0  0  0  0  0  0  0
   -2.7497    1.5743    6.5923 C   0  0  0  0  0  0  0  0  0  0  0  0
   -3.9741    1.2968    5.9795 C   0  0  0  0  0  0  0  0  0  0  0  0
   -3.8586    0.6897    3.5356 C   0  0  0  0  0  0  0  0  0  0  0  0
   -2.8742   -0.3645    1.7860 C   0  0  0  0  0  0  0  0  0  0  0  0
   -3.5804    0.5212    8.5915 C   0  0  0  0  0  0  0  0  0  0  0  0
   -2.5835    1.1726    7.9018 C   0  0  0  0  0  0  0  0  0  0  0  0
   -1.6676    2.2686    5.8763 C   0  0  0  0  0  0  0  0  0  0  0  0
   -1.8717    0.7454    9.8999 C   0  0  0  0  0  0  0  0  0  0  0  0
   -4.2341    1.7076    4.5379 C   0  0  0  0  0  0  0  0  0  0  0  0
   -3.7734   -1.2117    2.3935 N   0  0  0  0  0  0  0  0  0  0  0  0
   -0.8089    1.5678    5.2203 O   0  5  0  0  0  0  0  0  0  0  0  0
   -1.6143    3.5544    5.9294 O   0  0  0  0  0  0  0  0  0  0  0  0
   -3.2120    0.2137    9.8649 O   0  0  0  0  0  0  0  0  0  0  0  0
   -1.4663    1.3549    8.6571 O   0  0  0  0  0  0  0  0  0  0  0  0
   -0.5859    2.5100    0.6336 H   0  0  0  0  0  0  0  0  0  0  0  0
   -0.5620    0.3577   -0.5736 H   0  0  0  0  0  0  0  0  0  0  0  0
   -2.0697    2.8487    2.5874 H   0  0  0  0  0  0  0  0  0  0  0  0
   -5.9427    0.4186    6.1998 H   0  0  0  0  0  0  0  0  0  0  0  0
   -2.0316   -1.5180    0.1492 H   0  0  0  0  0  0  0  0  0  0  0  0
   -5.5810   -0.2782    8.5565 H   0  0  0  0  0  0  0  0  0  0  0  0
   -5.1113   -1.0998    4.0501 H   0  0  0  0  0  0  0  0  0  0  0  0
   -1.8133    1.4976   10.6950 H   0  0  0  0  0  0  0  0  0  0  0  0
   -1.1769   -0.0694   10.1343 H   0  0  0  0  0  0  0  0  0  0  0  0
   -5.3039    1.9862    4.4454 H   0  0  0  0  0  0  0  0  0  0  0  0
   -3.7092    2.6669    4.3513 H   0  0  0  0  0  0  0  0  0  0  0  0
   -3.9627   -2.1601    2.1001 H   0  0  0  0  0  0  0  0  0  0  0  0
  1  2  1  0  0  0  0
  1  3  2  0  0  0  0
  2  5  2  0  0  0  0
  3  8  1  0  0  0  0
  4  6  2  0  0  0  0
  4 10  1  0  0  0  0
  5 12  1  0  0  0  0
  6 13  1  0  0  0  0
  7 11  2  0  0  0  0
  7 18  1  0  0  0  0
  8 11  1  0  0  0  0
  8 12  2  0  0  0  0
  9 10  2  0  0  0  0
  9 14  1  0  0  0  0
  9 15  1  0  0  0  0
 10 17  1  0  0  0  0
 11 17  1  0  0  0  0
 12 18  1  0  0  0  0
 13 14  2  0  0  0  0
 13 21  1  0  0  0  0
 14 22  1  0  0  0  0
 15 19  1  0  0  0  0
 15 20  2  0  0  0  0
 16 21  1  0  0  0  0
 16 22  1  0  0  0  0
  1 23  1  0  0  0  0
  2 24  1  0  0  0  0
  3 25  1  0  0  0  0
  4 26  1  0  0  0  0
  5 27  1  0  0  0  0
  6 28  1  0  0  0  0
  7 29  1  0  0  0  0
 16 30  1  0  0  0  0
 16 31  1  0  0  0  0
 17 32  1  0  0  0  0
 17 33  1  0  0  0  0
 18 34  1  0  0  0  0
M  CHG  1  19  -1
M  END
$$$$
