@<TRIPOS>MOLECULE
AVX17560_1
   54    55     0     0     0
SMALL
NO_CHARGES

@<TRIPOS>ATOM
      1 C1         -2.5816    2.6097   -1.4340 C.ar      1 MOL         0.0000
      2 C2         -2.8069    3.5984   -2.3948 C.ar      1 MOL         0.0000
      3 C3         -3.1356    0.8641   -3.0384 C.ar      1 MOL         0.0000
      4 C4         -2.7449    1.2504   -1.7539 C.ar      1 MOL         0.0000
      5 C5         -3.1918    3.1904   -3.6554 C.ar      1 MOL         0.0000
      6 C6         -3.3516    1.8599   -3.9686 C.ar      1 MOL         0.0000
      7 C7         -3.3125   -0.5518   -3.3987 C.2       1 MOL         0.0000
      8 C8         -1.2012   -3.4499   -1.7150 C.2       1 MOL         0.0000
      9 C9         -3.7966    3.0391   -5.7274 C.3       1 MOL         0.0000
     10 C10         2.0052    0.2419   -1.2482 C.3       1 MOL         0.0000
     11 C11         2.1417    1.4838    0.9196 C.3       1 MOL         0.0000
     12 C12        -2.4894    0.2190   -0.6808 C.3       1 MOL         0.0000
     13 C13        -2.2306   -4.4049   -2.2931 C.3       1 MOL         0.0000
     14 C14        -1.6600   -5.2706   -3.4137 C.3       1 MOL         0.0000
     15 C15        -0.1114    0.7480    0.0855 C.3       1 MOL         0.0000
     16 C16        -0.9724   -1.6815    0.0179 C.3       1 MOL         0.0000
     17 C17        -2.7273   -6.1848   -3.9957 C.3       1 MOL         0.0000
     18 C18         1.3900    0.3982    0.1429 C.3       1 MOL         0.0000
     19 C19        -1.0240   -0.2830   -0.6244 C.3       1 MOL         0.0000
     20 N1         -1.7358   -2.6685   -0.6957 N.am      1 MOL         0.0000
     21 N2         -2.1181   -7.0360   -5.0458 N.4       1 MOL         0.0000
     22 O1         -2.3037   -1.2039   -3.8635 O.co2     1 MOL         0.0000
     23 O2         -4.4703   -1.0925   -3.2378 O.co2     1 MOL         0.0000
     24 O3         -0.0414   -3.3883   -2.1139 O.2       1 MOL         0.0000
     25 O4         -3.4533    4.0055   -4.7133 O.3       1 MOL         0.0000
     26 O5         -3.7335    1.6754   -5.2617 O.3       1 MOL         0.0000
     27 H1         -2.2769    2.9020   -0.4319 H         1 MOL         0.0000
     28 H2         -2.6820    4.6476   -2.1523 H         1 MOL         0.0000
     29 H3         -4.8152    3.2437   -6.0766 H         1 MOL         0.0000
     30 H4         -3.1055    3.1543   -6.5703 H         1 MOL         0.0000
     31 H5          1.8955    1.1593   -1.8362 H         1 MOL         0.0000
     32 H6          3.0740    0.0127   -1.1766 H         1 MOL         0.0000
     33 H7          1.5363   -0.5765   -1.8023 H         1 MOL         0.0000
     34 H8          2.0457    2.4550    0.4225 H         1 MOL         0.0000
     35 H9          3.2090    1.2475    0.9842 H         1 MOL         0.0000
     36 H10         1.7539    1.5853    1.9390 H         1 MOL         0.0000
     37 H11        -3.1648   -0.6261   -0.8709 H         1 MOL         0.0000
     38 H12        -2.7875    0.6205    0.2964 H         1 MOL         0.0000
     39 H13        -3.0731   -3.8127   -2.6702 H         1 MOL         0.0000
     40 H14        -2.6019   -5.0411   -1.4807 H         1 MOL         0.0000
     41 H15        -0.8248   -5.8694   -3.0285 H         1 MOL         0.0000
     42 H16        -1.2472   -4.6283   -4.2021 H         1 MOL         0.0000
     43 H17        -0.4758    0.9016    1.1099 H         1 MOL         0.0000
     44 H18        -0.2136    1.7178   -0.4181 H         1 MOL         0.0000
     45 H19         0.0606   -2.0437    0.0615 H         1 MOL         0.0000
     46 H20        -1.3455   -1.6603    1.0460 H         1 MOL         0.0000
     47 H21        -3.1441   -6.8597   -3.2424 H         1 MOL         0.0000
     48 H22        -3.5346   -5.6213   -4.4727 H         1 MOL         0.0000
     49 H23         1.5250   -0.5421    0.6895 H         1 MOL         0.0000
     50 H24        -0.6696   -0.3978   -1.6566 H         1 MOL         0.0000
     51 H25        -2.7229   -2.7724   -0.4647 H         1 MOL         0.0000
     52 H26        -2.4578   -6.7711   -5.9769 H         1 MOL         0.0000
     53 H27        -2.3476   -8.0248   -4.8959 H         1 MOL         0.0000
     54 H28        -1.0961   -6.9457   -5.0453 H         1 MOL         0.0000
@<TRIPOS>BOND
     1    1    2 ar
     2    1    4 ar
     3    2    5 ar
     4    3    4 ar
     5    3    6 ar
     6    3    7 1
     7    4   12 1
     8    5    6 ar
     9    5   25 1
    10    6   26 1
    11    7   22 1
    12    7   23 2
    13    8   13 1
    14    8   20 am
    15    8   24 2
    16    9   25 1
    17    9   26 1
    18   10   18 1
    19   11   18 1
    20   12   19 1
    21   13   14 1
    22   14   17 1
    23   15   18 1
    24   15   19 1
    25   16   19 1
    26   16   20 1
    27   17   21 1
    28    1   27 1
    29    2   28 1
    30    9   29 1
    31    9   30 1
    32   10   31 1
    33   10   32 1
    34   10   33 1
    35   11   34 1
    36   11   35 1
    37   11   36 1
    38   12   37 1
    39   12   38 1
    40   13   39 1
    41   13   40 1
    42   14   41 1
    43   14   42 1
    44   15   43 1
    45   15   44 1
    46   16   45 1
    47   16   46 1
    48   17   47 1
    49   17   48 1
    50   18   49 1
    51   19   50 1
    52   20   51 1
    53   21   52 1
    54   21   53 1
    55   21   54 1
