AVX101124_3
  -OEChem-04011314513D

 57 60  0     1  0  0  0  0  0999 V2000
   -2.5732   -3.1272    1.4546 C   0  0  0  0  0  0  0  0  0  0  0  0
   -2.3121   -3.2659    0.0841 C   0  0  0  0  0  0  0  0  0  0  0  0
   -1.9935   -2.0891    2.1885 C   0  0  0  0  0  0  0  0  0  0  0  0
   -2.0789   -0.1350    4.8764 C   0  0  0  0  0  0  0  0  0  0  0  0
   -1.4673   -2.3684   -0.5703 C   0  0  0  0  0  0  0  0  0  0  0  0
   -2.6276   -0.8287    5.9576 C   0  0  0  0  0  0  0  0  0  0  0  0
   -1.1565   -1.1976    1.5316 C   0  0  0  0  0  0  0  0  0  0  0  0
   -0.7804   -0.4271    4.4233 C   0  0  0  0  0  0  0  0  0  0  0  0
   -0.0156   -1.4163    5.0463 C   0  0  0  0  0  0  0  0  0  0  0  0
   -0.9019   -1.3354    0.1633 C   0  0  0  0  0  0  0  0  0  0  0  0
   -1.8517   -1.8006    6.5551 C   0  0  0  0  0  0  0  0  0  0  0  0
   -0.5807   -2.0866    6.1116 C   0  0  0  0  0  0  0  0  0  0  0  0
   -0.4350   -0.0272    2.0283 C   0  0  0  0  0  0  0  0  0  0  0  0
   -0.2677    0.3151    3.3105 C   0  0  0  0  0  0  0  0  0  0  0  0
    1.3471   -1.7509    4.5962 C   0  0  0  0  0  0  0  0  0  0  0  0
   -0.1484    3.0163   -0.0258 C   0  0  0  0  0  0  0  0  0  0  0  0
    0.0640   -0.3036   -0.3389 C   0  0  0  0  0  0  0  0  0  0  0  0
   -1.0321   -3.3795    7.7869 C   0  0  0  0  0  0  0  0  0  0  0  0
    0.1425    0.6943    0.8317 C   0  0  1  0  0  0  0  0  0  0  0  0
   -1.2065    4.1015   -0.1403 C   0  0  0  0  0  0  0  0  0  0  0  0
   -0.7030    5.3859   -0.7975 C   0  0  0  0  0  0  0  0  0  0  0  0
   -1.7962    6.4550   -0.9029 C   0  0  0  0  0  0  0  0  0  0  0  0
   -1.2673    7.7191   -1.5876 C   0  0  0  0  0  0  0  0  0  0  0  0
   -2.3158    8.8155   -1.7301 C   0  0  0  0  0  0  0  0  0  0  0  0
   -0.6538    1.8731    0.5762 N   0  0  0  0  0  0  0  0  0  0  0  0
   -2.8172    9.2369   -0.4009 N   0  3  0  0  0  0  0  0  0  0  0  0
    1.4956   -2.6637    3.7010 O   0  5  0  0  0  0  0  0  0  0  0  0
    2.3417   -1.1192    5.1141 O   0  0  0  0  0  0  0  0  0  0  0  0
    1.0099    3.1633   -0.4062 O   0  0  0  0  0  0  0  0  0  0  0  0
   -2.2162   -2.5747    7.6133 O   0  0  0  0  0  0  0  0  0  0  0  0
    0.0097   -3.0754    6.8368 O   0  0  0  0  0  0  0  0  0  0  0  0
   -3.2329   -3.8346    1.9497 H   0  0  0  0  0  0  0  0  0  0  0  0
   -2.7680   -4.0814   -0.4708 H   0  0  0  0  0  0  0  0  0  0  0  0
   -2.2084   -1.9930    3.2477 H   0  0  0  0  0  0  0  0  0  0  0  0
   -2.6746    0.6348    4.3903 H   0  0  0  0  0  0  0  0  0  0  0  0
   -1.2577   -2.4834   -1.6285 H   0  0  0  0  0  0  0  0  0  0  0  0
   -3.6285   -0.6057    6.3098 H   0  0  0  0  0  0  0  0  0  0  0  0
    0.2734    1.2367    3.5172 H   0  0  0  0  0  0  0  0  0  0  0  0
    1.0377   -0.7787   -0.5045 H   0  0  0  0  0  0  0  0  0  0  0  0
   -0.2805    0.1585   -1.2697 H   0  0  0  0  0  0  0  0  0  0  0  0
   -0.6430   -3.2180    8.7988 H   0  0  0  0  0  0  0  0  0  0  0  0
   -1.3072   -4.4351    7.6796 H   0  0  0  0  0  0  0  0  0  0  0  0
    1.1734    1.0262    0.9940 H   0  0  0  0  0  0  0  0  0  0  0  0
   -2.0714    3.7091   -0.6878 H   0  0  0  0  0  0  0  0  0  0  0  0
   -1.5383    4.3321    0.8796 H   0  0  0  0  0  0  0  0  0  0  0  0
    0.1226    5.7826   -0.1939 H   0  0  0  0  0  0  0  0  0  0  0  0
   -0.2953    5.1698   -1.7922 H   0  0  0  0  0  0  0  0  0  0  0  0
   -2.1581    6.7072    0.1013 H   0  0  0  0  0  0  0  0  0  0  0  0
   -2.6484    6.0560   -1.4627 H   0  0  0  0  0  0  0  0  0  0  0  0
   -0.4329    8.1207   -0.9996 H   0  0  0  0  0  0  0  0  0  0  0  0
   -0.8625    7.4615   -2.5742 H   0  0  0  0  0  0  0  0  0  0  0  0
   -1.9165    9.7077   -2.2212 H   0  0  0  0  0  0  0  0  0  0  0  0
   -3.1837    8.4527   -2.2888 H   0  0  0  0  0  0  0  0  0  0  0  0
   -1.6317    1.8640    0.8508 H   0  0  0  0  0  0  0  0  0  0  0  0
   -2.2100    8.8887    0.3495 H   0  0  0  0  0  0  0  0  0  0  0  0
   -3.7633    8.8762   -0.2330 H   0  0  0  0  0  0  0  0  0  0  0  0
   -2.8528   10.2600   -0.3278 H   0  0  0  0  0  0  0  0  0  0  0  0
  1  2  1  0  0  0  0
  1  3  2  0  0  0  0
  2  5  2  0  0  0  0
  3  7  1  0  0  0  0
  4  6  2  0  0  0  0
  4  8  1  0  0  0  0
  5 10  1  0  0  0  0
  6 11  1  0  0  0  0
  7 10  2  0  0  0  0
  7 13  1  0  0  0  0
  8  9  2  0  0  0  0
  8 14  1  0  0  0  0
  9 12  1  0  0  0  0
  9 15  1  0  0  0  0
 10 17  1  0  0  0  0
 11 12  2  0  0  0  0
 11 30  1  0  0  0  0
 12 31  1  0  0  0  0
 13 14  2  0  0  0  0
 13 19  1  0  0  0  0
 15 27  1  0  0  0  0
 15 28  2  0  0  0  0
 16 20  1  0  0  0  0
 16 25  1  0  0  0  0
 16 29  2  0  0  0  0
 17 19  1  0  0  0  0
 18 30  1  0  0  0  0
 18 31  1  0  0  0  0
 19 25  1  0  0  0  0
 20 21  1  0  0  0  0
 21 22  1  0  0  0  0
 22 23  1  0  0  0  0
 23 24  1  0  0  0  0
 24 26  1  0  0  0  0
  1 32  1  0  0  0  0
  2 33  1  0  0  0  0
  3 34  1  0  0  0  0
  4 35  1  0  0  0  0
  5 36  1  0  0  0  0
  6 37  1  0  0  0  0
 14 38  1  0  0  0  0
 17 39  1  0  0  0  0
 17 40  1  0  0  0  0
 18 41  1  0  0  0  0
 18 42  1  0  0  0  0
 19 43  1  0  0  0  0
 20 44  1  0  0  0  0
 20 45  1  0  0  0  0
 21 46  1  0  0  0  0
 21 47  1  0  0  0  0
 22 48  1  0  0  0  0
 22 49  1  0  0  0  0
 23 50  1  0  0  0  0
 23 51  1  0  0  0  0
 24 52  1  0  0  0  0
 24 53  1  0  0  0  0
 25 54  1  0  0  0  0
 26 55  1  0  0  0  0
 26 56  1  0  0  0  0
 26 57  1  0  0  0  0
M  CHG  2  26   1  27  -1
M  END
$$$$
