@<TRIPOS>MOLECULE
AVX16981_0
   31    33     0     0     0
SMALL
NO_CHARGES

@<TRIPOS>ATOM
      1 C1         -0.2970    0.8444    2.1842 C.ar      1 MOL         0.0000
      2 C2         -0.4191   -0.2467    1.3260 C.ar      1 MOL         0.0000
      3 C3         -4.6292    0.0737    7.9574 C.ar      1 MOL         0.0000
      4 C4         -1.3748    1.2571    2.9760 C.ar      1 MOL         0.0000
      5 C5         -3.4973    0.5439    8.6231 C.ar      1 MOL         0.0000
      6 C6         -4.8676    0.4500    6.6355 C.ar      1 MOL         0.0000
      7 C7         -1.6183   -0.9586    1.2314 C.ar      1 MOL         0.0000
      8 C8         -2.8422    1.7671    6.6453 C.ar      1 MOL         0.0000
      9 C9         -4.6801   -0.3017    3.0507 C.2       1 MOL         0.0000
     10 C10        -2.5938    0.5547    2.8975 C.ar      1 MOL         0.0000
     11 C11        -2.6038    1.3907    7.9671 C.ar      1 MOL         0.0000
     12 C12        -3.9741    1.2968    5.9795 C.ar      1 MOL         0.0000
     13 C13        -3.8586    0.6897    3.5356 C.2       1 MOL         0.0000
     14 C14        -2.6873   -0.5347    2.0288 C.ar      1 MOL         0.0000
     15 C15        -1.4096    1.8875    8.6692 C.2       1 MOL         0.0000
     16 C16        -4.2341    1.7076    4.5379 C.3       1 MOL         0.0000
     17 N1         -3.9647   -1.0352    2.1426 N.pl3     1 MOL         0.0000
     18 O1         -0.6006    2.6678    8.0403 O.co2     1 MOL         0.0000
     19 O2         -1.2123    1.5254    9.8894 O.co2     1 MOL         0.0000
     20 H1          0.6458    1.3818    2.2407 H         1 MOL         0.0000
     21 H2          0.4308   -0.5499    0.7200 H         1 MOL         0.0000
     22 H3         -5.3245   -0.5858    8.4684 H         1 MOL         0.0000
     23 H4         -1.2634    2.1090    3.6407 H         1 MOL         0.0000
     24 H5         -3.3208    0.2442    9.6530 H         1 MOL         0.0000
     25 H6         -5.7519    0.0787    6.1246 H         1 MOL         0.0000
     26 H7         -1.7127   -1.8071    0.5623 H         1 MOL         0.0000
     27 H8         -2.1464    2.4272    6.1324 H         1 MOL         0.0000
     28 H9         -5.7087   -0.5526    3.2706 H         1 MOL         0.0000
     29 H10        -5.3039    1.9862    4.4454 H         1 MOL         0.0000
     30 H11        -3.7092    2.6669    4.3513 H         1 MOL         0.0000
     31 H12        -4.3219   -1.8293    1.6296 H         1 MOL         0.0000
@<TRIPOS>BOND
     1    1    2 ar
     2    1    4 ar
     3    2    7 ar
     4    3    5 ar
     5    3    6 ar
     6    4   10 ar
     7    5   11 ar
     8    6   12 ar
     9    7   14 ar
    10    8   11 ar
    11    8   12 ar
    12    9   13 2
    13    9   17 1
    14   10   13 1
    15   10   14 ar
    16   11   15 1
    17   12   16 1
    18   13   16 1
    19   14   17 1
    20   15   18 1
    21   15   19 2
    22    1   20 1
    23    2   21 1
    24    3   22 1
    25    4   23 1
    26    5   24 1
    27    6   25 1
    28    7   26 1
    29    8   27 1
    30    9   28 1
    31   16   29 1
    32   16   30 1
    33   17   31 1
