@<TRIPOS>MOLECULE
AVX17558_0
   53    56     0     0     0
SMALL
NO_CHARGES

@<TRIPOS>ATOM
      1 C1          2.0069    1.7310   -0.6805 C.ar      1 MOL         0.0000
      2 C2          2.2404    0.4799   -1.2717 C.ar      1 MOL         0.0000
      3 C3          0.8190    1.9810    0.0082 C.ar      1 MOL         0.0000
      4 C4          1.2891   -0.5394   -1.1834 C.ar      1 MOL         0.0000
      5 C5         -2.8161   -3.8512    0.6873 C.ar      1 MOL         0.0000
      6 C6         -3.9375   -4.6567    0.4751 C.ar      1 MOL         0.0000
      7 C7         -2.1912   -4.0290   -1.6592 C.ar      1 MOL         0.0000
      8 C8         -0.1125    0.9601    0.1024 C.ar      1 MOL         0.0000
      9 C9          0.1167   -0.2913   -0.4868 C.ar      1 MOL         0.0000
     10 C10        -1.9480   -3.5390   -0.3737 C.ar      1 MOL         0.0000
     11 C11        -4.1549   -5.1277   -0.8034 C.ar      1 MOL         0.0000
     12 C12        -3.3053   -4.8221   -1.8420 C.ar      1 MOL         0.0000
     13 C13        -1.2985   -3.7160   -2.7867 C.2       1 MOL         0.0000
     14 C14        -2.0952   -0.9625    3.3436 C.2       1 MOL         0.0000
     15 C15        -1.4594    1.0068    0.7597 C.3       1 MOL         0.0000
     16 C16        -4.8944   -6.0797   -2.6003 C.3       1 MOL         0.0000
     17 C17        -1.0743   -1.1908   -0.2824 C.3       1 MOL         0.0000
     18 C18        -1.7710   -0.4967    0.9214 C.3       1 MOL         0.0000
     19 C19        -0.7528   -2.6669   -0.0948 C.3       1 MOL         0.0000
     20 C20        -1.3505   -1.5155    4.5459 C.3       1 MOL         0.0000
     21 C21        -2.2031   -1.5144    5.8124 C.3       1 MOL         0.0000
     22 C22        -1.4136   -2.0359    7.0033 C.3       1 MOL         0.0000
     23 N1         -1.3022   -0.9736    2.2078 N.am      1 MOL         0.0000
     24 N2         -2.2932   -2.0595    8.1967 N.4       1 MOL         0.0000
     25 O1         -1.5386   -2.6674   -3.4948 O.co2     1 MOL         0.0000
     26 O2         -0.3067   -4.5013   -3.0285 O.co2     1 MOL         0.0000
     27 O3         -3.2542   -0.5602    3.3963 O.2       1 MOL         0.0000
     28 O4         -5.1888   -5.9199   -1.1975 O.3       1 MOL         0.0000
     29 O5         -3.7007   -5.3851   -3.0162 O.3       1 MOL         0.0000
     30 H1          2.7566    2.5131   -0.7651 H         1 MOL         0.0000
     31 H2          3.1684    0.3057   -1.8097 H         1 MOL         0.0000
     32 H3          0.6345    2.9522    0.4544 H         1 MOL         0.0000
     33 H4          1.4725   -1.4974   -1.6578 H         1 MOL         0.0000
     34 H5         -2.6199   -3.4654    1.6849 H         1 MOL         0.0000
     35 H6         -4.6094   -4.8997    1.2904 H         1 MOL         0.0000
     36 H7         -1.4342    1.5384    1.7158 H         1 MOL         0.0000
     37 H8         -2.1761    1.4849    0.0830 H         1 MOL         0.0000
     38 H9         -4.7710   -7.1477   -2.8136 H         1 MOL         0.0000
     39 H10        -5.7420   -5.6999   -3.1823 H         1 MOL         0.0000
     40 H11        -1.7182   -1.0792   -1.1687 H         1 MOL         0.0000
     41 H12        -2.8517   -0.6815    0.9103 H         1 MOL         0.0000
     42 H13        -0.3985   -2.8401    0.9281 H         1 MOL         0.0000
     43 H14         0.0751   -2.9509   -0.7551 H         1 MOL         0.0000
     44 H15        -0.4508   -0.9078    4.7004 H         1 MOL         0.0000
     45 H16        -1.0311   -2.5378    4.3105 H         1 MOL         0.0000
     46 H17        -3.0963   -2.1328    5.6564 H         1 MOL         0.0000
     47 H18        -2.5590   -0.4964    6.0164 H         1 MOL         0.0000
     48 H19        -1.0643   -3.0607    6.8464 H         1 MOL         0.0000
     49 H20        -0.5648   -1.3905    7.2473 H         1 MOL         0.0000
     50 H21        -0.3415   -1.2919    2.2694 H         1 MOL         0.0000
     51 H22        -2.0813   -2.8662    8.7939 H         1 MOL         0.0000
     52 H23        -3.2805   -2.1196    7.9239 H         1 MOL         0.0000
     53 H24        -2.1725   -1.2100    8.7593 H         1 MOL         0.0000
@<TRIPOS>BOND
     1    1    2 ar
     2    1    3 ar
     3    2    4 ar
     4    3    8 ar
     5    4    9 ar
     6    5    6 ar
     7    5   10 ar
     8    6   11 ar
     9    7   10 ar
    10    7   12 ar
    11    7   13 1
    12    8    9 ar
    13    8   15 1
    14    9   17 1
    15   10   19 1
    16   11   12 ar
    17   11   28 1
    18   12   29 1
    19   13   25 1
    20   13   26 2
    21   14   20 1
    22   14   23 am
    23   14   27 2
    24   15   18 1
    25   16   28 1
    26   16   29 1
    27   17   18 1
    28   17   19 1
    29   18   23 1
    30   20   21 1
    31   21   22 1
    32   22   24 1
    33    1   30 1
    34    2   31 1
    35    3   32 1
    36    4   33 1
    37    5   34 1
    38    6   35 1
    39   15   36 1
    40   15   37 1
    41   16   38 1
    42   16   39 1
    43   17   40 1
    44   18   41 1
    45   19   42 1
    46   19   43 1
    47   20   44 1
    48   20   45 1
    49   21   46 1
    50   21   47 1
    51   22   48 1
    52   22   49 1
    53   23   50 1
    54   24   51 1
    55   24   52 1
    56   24   53 1
