AVX17680_0
  -OEChem-04011314553D

 57 58  0     1  0  0  0  0  0999 V2000
   -1.1571   -3.0776    0.8666 C   0  0  0  0  0  0  0  0  0  0  0  0
   -1.1150   -4.1476   -0.0305 C   0  0  0  0  0  0  0  0  0  0  0  0
   -2.4825   -1.7634   -0.6968 C   0  0  0  0  0  0  0  0  0  0  0  0
   -1.8370   -1.8923    0.5353 C   0  0  0  0  0  0  0  0  0  0  0  0
   -1.7604   -3.9947   -1.2403 C   0  0  0  0  0  0  0  0  0  0  0  0
   -2.4260   -2.8346   -1.5646 C   0  0  0  0  0  0  0  0  0  0  0  0
   -3.2017   -0.5339   -1.0670 C   0  0  0  0  0  0  0  0  0  0  0  0
    2.0596   -0.4101   -0.3157 C   0  0  0  0  0  0  0  0  0  0  0  0
   -2.6083   -4.2177   -3.2185 C   0  0  0  0  0  0  0  0  0  0  0  0
   -1.3516    2.4045    4.6729 C   0  0  0  0  0  0  0  0  0  0  0  0
   -1.8541   -0.7635    1.5389 C   0  0  0  0  0  0  0  0  0  0  0  0
    2.3989   -1.1180   -1.6174 C   0  0  0  0  0  0  0  0  0  0  0  0
   -1.3948    1.7154    3.3168 C   0  0  0  0  0  0  0  0  0  0  0  0
    3.5068   -2.1614   -1.4804 C   0  0  0  0  0  0  0  0  0  0  0  0
    3.1462   -3.2683   -0.4835 C   0  0  0  0  0  0  0  0  0  0  0  0
    4.2857   -4.2834   -0.3503 C   0  0  0  0  0  0  0  0  0  0  0  0
   -0.4663    0.4980    3.2808 C   0  0  0  0  0  0  0  0  0  0  0  0
    0.1425    0.6943    0.8317 C   0  0  0  0  0  0  0  0  0  0  0  0
    3.9871   -5.4040    0.6381 C   0  0  0  0  0  0  0  0  0  0  0  0
   -0.4515   -0.2292    1.9151 C   0  0  2  0  0  0  0  0  0  0  0  0
    0.7286   -0.0200   -0.2795 N   0  0  0  0  0  0  0  0  0  0  0  0
    2.7906   -6.1696    0.2164 N   0  3  0  0  0  0  0  0  0  0  0  0
   -4.4512   -0.4336   -0.7711 O   0  5  0  0  0  0  0  0  0  0  0  0
   -2.5582    0.4015   -1.6751 O   0  0  0  0  0  0  0  0  0  0  0  0
    2.8831   -0.2013    0.5709 O   0  0  0  0  0  0  0  0  0  0  0  0
   -1.8270   -4.9234   -2.2328 O   0  0  0  0  0  0  0  0  0  0  0  0
   -2.9923   -2.8916   -2.8007 O   0  0  0  0  0  0  0  0  0  0  0  0
   -0.6575   -3.1701    1.8280 H   0  0  0  0  0  0  0  0  0  0  0  0
   -0.5920   -5.0633    0.2210 H   0  0  0  0  0  0  0  0  0  0  0  0
   -2.0212   -4.1386   -4.1407 H   0  0  0  0  0  0  0  0  0  0  0  0
   -3.5156   -4.7963   -3.4272 H   0  0  0  0  0  0  0  0  0  0  0  0
   -0.3346    2.7277    4.9172 H   0  0  0  0  0  0  0  0  0  0  0  0
   -2.0050    3.2827    4.6872 H   0  0  0  0  0  0  0  0  0  0  0  0
   -1.6869    1.7184    5.4570 H   0  0  0  0  0  0  0  0  0  0  0  0
   -2.4817    0.0574    1.1691 H   0  0  0  0  0  0  0  0  0  0  0  0
   -2.3679   -1.1426    2.4302 H   0  0  0  0  0  0  0  0  0  0  0  0
    1.4925   -1.5787   -2.0272 H   0  0  0  0  0  0  0  0  0  0  0  0
    2.7253   -0.3456   -2.3246 H   0  0  0  0  0  0  0  0  0  0  0  0
   -2.4245    1.4059    3.1048 H   0  0  0  0  0  0  0  0  0  0  0  0
   -1.1062    2.4419    2.5506 H   0  0  0  0  0  0  0  0  0  0  0  0
    3.6791   -2.6142   -2.4646 H   0  0  0  0  0  0  0  0  0  0  0  0
    4.4465   -1.6817   -1.1814 H   0  0  0  0  0  0  0  0  0  0  0  0
    2.2372   -3.7811   -0.8206 H   0  0  0  0  0  0  0  0  0  0  0  0
    2.9242   -2.8260    0.4932 H   0  0  0  0  0  0  0  0  0  0  0  0
    4.4762   -4.7365   -1.3310 H   0  0  0  0  0  0  0  0  0  0  0  0
    5.2076   -3.7657   -0.0577 H   0  0  0  0  0  0  0  0  0  0  0  0
   -0.7938   -0.2089    4.0542 H   0  0  0  0  0  0  0  0  0  0  0  0
    0.5501    0.8111    3.5506 H   0  0  0  0  0  0  0  0  0  0  0  0
   -0.6350    1.3468    0.4196 H   0  0  0  0  0  0  0  0  0  0  0  0
    0.9187    1.3446    1.2472 H   0  0  0  0  0  0  0  0  0  0  0  0
    4.8136   -6.1163    0.7170 H   0  0  0  0  0  0  0  0  0  0  0  0
    3.7631   -4.9984    1.6291 H   0  0  0  0  0  0  0  0  0  0  0  0
    0.2339   -1.0829    2.0058 H   0  0  0  0  0  0  0  0  0  0  0  0
    0.1370   -0.2477   -1.0732 H   0  0  0  0  0  0  0  0  0  0  0  0
    2.5394   -5.9555   -0.7553 H   0  0  0  0  0  0  0  0  0  0  0  0
    1.9822   -5.9440    0.8072 H   0  0  0  0  0  0  0  0  0  0  0  0
    2.9571   -7.1801    0.2831 H   0  0  0  0  0  0  0  0  0  0  0  0
  1  2  2  0  0  0  0
  1  4  1  0  0  0  0
  2  5  1  0  0  0  0
  3  4  2  0  0  0  0
  3  6  1  0  0  0  0
  3  7  1  0  0  0  0
  4 11  1  0  0  0  0
  5  6  2  0  0  0  0
  5 26  1  0  0  0  0
  6 27  1  0  0  0  0
  7 23  1  0  0  0  0
  7 24  2  0  0  0  0
  8 12  1  0  0  0  0
  8 21  1  0  0  0  0
  8 25  2  0  0  0  0
  9 26  1  0  0  0  0
  9 27  1  0  0  0  0
 10 13  1  0  0  0  0
 11 20  1  0  0  0  0
 12 14  1  0  0  0  0
 13 17  1  0  0  0  0
 14 15  1  0  0  0  0
 15 16  1  0  0  0  0
 16 19  1  0  0  0  0
 17 20  1  0  0  0  0
 18 20  1  0  0  0  0
 18 21  1  0  0  0  0
 19 22  1  0  0  0  0
  1 28  1  0  0  0  0
  2 29  1  0  0  0  0
  9 30  1  0  0  0  0
  9 31  1  0  0  0  0
 10 32  1  0  0  0  0
 10 33  1  0  0  0  0
 10 34  1  0  0  0  0
 11 35  1  0  0  0  0
 11 36  1  0  0  0  0
 12 37  1  0  0  0  0
 12 38  1  0  0  0  0
 13 39  1  0  0  0  0
 13 40  1  0  0  0  0
 14 41  1  0  0  0  0
 14 42  1  0  0  0  0
 15 43  1  0  0  0  0
 15 44  1  0  0  0  0
 16 45  1  0  0  0  0
 16 46  1  0  0  0  0
 17 47  1  0  0  0  0
 17 48  1  0  0  0  0
 18 49  1  0  0  0  0
 18 50  1  0  0  0  0
 19 51  1  0  0  0  0
 19 52  1  0  0  0  0
 20 53  1  0  0  0  0
 21 54  1  0  0  0  0
 22 55  1  0  0  0  0
 22 56  1  0  0  0  0
 22 57  1  0  0  0  0
M  CHG  2  22   1  23  -1
M  END
$$$$
