AVX17288_1
  -OEChem-04011314523D

 42 44  0     1  0  0  0  0  0999 V2000
    4.6031   -6.1047    5.4089 C   0  0  0  0  0  0  0  0  0  0  0  0
    5.4359   -6.6900    4.4553 C   0  0  0  0  0  0  0  0  0  0  0  0
    3.3912   -5.5337    5.0204 C   0  0  0  0  0  0  0  0  0  0  0  0
    5.0568   -6.7042    3.1130 C   0  0  0  0  0  0  0  0  0  0  0  0
    2.9695   -6.8130   -0.6418 C   0  0  0  0  0  0  0  0  0  0  0  0
    3.0122   -5.5478    3.6781 C   0  0  0  0  0  0  0  0  0  0  0  0
    3.8450   -6.1331    2.7243 C   0  0  0  0  0  0  0  0  0  0  0  0
    2.9659   -5.4110   -0.5141 C   0  0  0  0  0  0  0  0  0  0  0  0
    3.3140   -7.2706    0.6066 C   0  0  0  0  0  0  0  0  0  0  0  0
    1.7242   -4.9345    3.2997 C   0  0  0  0  0  0  0  0  0  0  0  0
   -1.0010   -1.9930   -1.1155 C   0  0  0  0  0  0  0  0  0  0  0  0
   -0.2082   -0.7120   -0.8880 C   0  0  0  0  0  0  0  0  0  0  0  0
   -0.4990   -2.7124   -2.3646 C   0  0  0  0  0  0  0  0  0  0  0  0
    1.2871   -0.9954   -0.9060 C   0  0  0  0  0  0  0  0  0  0  0  0
    1.0181   -2.8928   -2.3311 C   0  0  1  0  0  0  0  0  0  0  0  0
    3.4862   -8.6474    1.1101 C   0  0  0  0  0  0  0  0  0  0  0  0
    2.6581   -4.3976   -1.5770 C   0  0  0  0  0  0  0  0  0  0  0  0
    3.2828   -5.0047    0.7182 N   0  0  0  0  0  0  0  0  0  0  0  0
    3.4887   -6.1582    1.3762 N   0  0  0  0  0  0  0  0  0  0  0  0
    1.7046   -3.6875    2.9862 O   0  5  0  0  0  0  0  0  0  0  0  0
    0.6691   -5.6696    3.2980 O   0  0  0  0  0  0  0  0  0  0  0  0
    1.6748   -1.6409   -2.1185 O   0  0  0  0  0  0  0  0  0  0  0  0
    1.3626   -3.8638   -1.3472 O   0  0  0  0  0  0  0  0  0  0  0  0
    4.8982   -6.0935    6.4540 H   0  0  0  0  0  0  0  0  0  0  0  0
    6.3799   -7.1340    4.7586 H   0  0  0  0  0  0  0  0  0  0  0  0
    2.7506   -5.0797    5.7721 H   0  0  0  0  0  0  0  0  0  0  0  0
    5.7172   -7.1631    2.3809 H   0  0  0  0  0  0  0  0  0  0  0  0
    2.7531   -7.4089   -1.5168 H   0  0  0  0  0  0  0  0  0  0  0  0
   -0.8961   -2.6495   -0.2432 H   0  0  0  0  0  0  0  0  0  0  0  0
   -2.0672   -1.7629   -1.2179 H   0  0  0  0  0  0  0  0  0  0  0  0
   -0.4496   -0.0036   -1.6900 H   0  0  0  0  0  0  0  0  0  0  0  0
   -0.4972   -0.2485    0.0610 H   0  0  0  0  0  0  0  0  0  0  0  0
   -1.0005   -3.6826   -2.4514 H   0  0  0  0  0  0  0  0  0  0  0  0
   -0.7684   -2.1104   -3.2411 H   0  0  0  0  0  0  0  0  0  0  0  0
    1.8429   -0.0546   -0.8394 H   0  0  0  0  0  0  0  0  0  0  0  0
    1.5854   -1.6116   -0.0500 H   0  0  0  0  0  0  0  0  0  0  0  0
    1.3470   -3.2765   -3.3031 H   0  0  0  0  0  0  0  0  0  0  0  0
    4.5259   -8.9902    0.9816 H   0  0  0  0  0  0  0  0  0  0  0  0
    3.2359   -8.7305    2.1815 H   0  0  0  0  0  0  0  0  0  0  0  0
    2.8298   -9.3642    0.5874 H   0  0  0  0  0  0  0  0  0  0  0  0
    3.3884   -3.5813   -1.5632 H   0  0  0  0  0  0  0  0  0  0  0  0
    2.6861   -4.8574   -2.5708 H   0  0  0  0  0  0  0  0  0  0  0  0
  1  2  1  0  0  0  0
  1  3  2  0  0  0  0
  2  4  2  0  0  0  0
  3  6  1  0  0  0  0
  4  7  1  0  0  0  0
  5  8  1  0  0  0  0
  5  9  2  0  0  0  0
  6  7  2  0  0  0  0
  6 10  1  0  0  0  0
  7 19  1  0  0  0  0
  8 17  1  0  0  0  0
  8 18  2  0  0  0  0
  9 16  1  0  0  0  0
  9 19  1  0  0  0  0
 10 20  1  0  0  0  0
 10 21  2  0  0  0  0
 11 12  1  0  0  0  0
 11 13  1  0  0  0  0
 12 14  1  0  0  0  0
 13 15  1  0  0  0  0
 14 22  1  0  0  0  0
 15 22  1  0  0  0  0
 15 23  1  0  0  0  0
 17 23  1  0  0  0  0
 18 19  1  0  0  0  0
  1 24  1  0  0  0  0
  2 25  1  0  0  0  0
  3 26  1  0  0  0  0
  4 27  1  0  0  0  0
  5 28  1  0  0  0  0
 11 29  1  0  0  0  0
 11 30  1  0  0  0  0
 12 31  1  0  0  0  0
 12 32  1  0  0  0  0
 13 33  1  0  0  0  0
 13 34  1  0  0  0  0
 14 35  1  0  0  0  0
 14 36  1  0  0  0  0
 15 37  1  0  0  0  0
 16 38  1  0  0  0  0
 16 39  1  0  0  0  0
 16 40  1  0  0  0  0
 17 41  1  0  0  0  0
 17 42  1  0  0  0  0
M  CHG  1  20  -1
M  END
$$$$
