AVX17269_1
  -OEChem-04011314523D

 27 29  0     1  0  0  0  0  0999 V2000
    1.3313   -0.5065   -0.0808 C   0  0  0  0  0  0  0  0  0  0  0  0
   -1.4722   -0.4986    0.5277 C   0  0  0  0  0  0  0  0  0  0  0  0
    0.5438    0.6246   -0.1805 C   0  0  0  0  0  0  0  0  0  0  0  0
    0.6639   -1.6404    0.3387 C   0  0  0  0  0  0  0  0  0  0  0  0
   -0.8149    0.6452    0.1104 C   0  0  0  0  0  0  0  0  0  0  0  0
   -0.6917   -1.6370    0.6330 C   0  0  0  0  0  0  0  0  0  0  0  0
    0.8747    1.9651   -0.5828 C   0  0  0  0  0  0  0  0  0  0  0  0
   -2.1343    5.3653   -0.6997 C   0  0  0  0  0  0  0  0  0  0  0  0
    0.0815   -3.6372    0.9461 C   0  0  0  0  0  0  0  0  0  0  0  0
   -0.3853    2.7878   -0.4626 C   0  0  1  0  0  0  0  0  0  0  0  0
   -2.0828    4.1888   -1.6815 C   0  0  0  0  0  0  0  0  0  0  0  0
   -0.7683    3.4344   -1.7791 C   0  0  0  0  0  0  0  0  0  0  0  0
   -3.2539    5.6089   -0.1719 O   0  5  0  0  0  0  0  0  0  0  0  0
    1.9729    2.3355   -0.9480 O   0  0  0  0  0  0  0  0  0  0  0  0
   -1.0241    5.9469   -0.5290 O   0  0  0  0  0  0  0  0  0  0  0  0
    1.2231   -2.8702    0.5130 O   0  0  0  0  0  0  0  0  0  0  0  0
   -1.1337   -2.8649    1.0244 O   0  0  0  0  0  0  0  0  0  0  0  0
   -1.4251    1.8620   -0.0596 O   0  0  0  0  0  0  0  0  0  0  0  0
    2.3877   -0.5061   -0.3131 H   0  0  0  0  0  0  0  0  0  0  0  0
   -2.5303   -0.5037    0.7564 H   0  0  0  0  0  0  0  0  0  0  0  0
   -0.0734   -4.4618    0.2408 H   0  0  0  0  0  0  0  0  0  0  0  0
    0.2952   -4.0572    1.9357 H   0  0  0  0  0  0  0  0  0  0  0  0
   -0.2633    3.5301    0.3335 H   0  0  0  0  0  0  0  0  0  0  0  0
   -2.3051    4.6076   -2.6711 H   0  0  0  0  0  0  0  0  0  0  0  0
   -2.8964    3.4944   -1.4368 H   0  0  0  0  0  0  0  0  0  0  0  0
    0.0466    4.0866   -2.0947 H   0  0  0  0  0  0  0  0  0  0  0  0
   -0.8593    2.6379   -2.5196 H   0  0  0  0  0  0  0  0  0  0  0  0
  1  3  2  0  0  0  0
  1  4  1  0  0  0  0
  2  5  2  0  0  0  0
  2  6  1  0  0  0  0
  3  5  1  0  0  0  0
  3  7  1  0  0  0  0
  4  6  2  0  0  0  0
  4 16  1  0  0  0  0
  5 18  1  0  0  0  0
  6 17  1  0  0  0  0
  7 10  1  0  0  0  0
  7 14  2  0  0  0  0
  8 11  1  0  0  0  0
  8 13  1  0  0  0  0
  8 15  2  0  0  0  0
  9 16  1  0  0  0  0
  9 17  1  0  0  0  0
 10 12  1  0  0  0  0
 10 18  1  0  0  0  0
 11 12  1  0  0  0  0
  1 19  1  0  0  0  0
  2 20  1  0  0  0  0
  9 21  1  0  0  0  0
  9 22  1  0  0  0  0
 10 23  1  0  0  0  0
 11 24  1  0  0  0  0
 11 25  1  0  0  0  0
 12 26  1  0  0  0  0
 12 27  1  0  0  0  0
M  CHG  1  13  -1
M  END
$$$$
