AVX17286_0
  -OEChem-04011314523D

 33 36  0     0  0  0  0  0  0999 V2000
   -0.1948   -1.2188   -1.7733 C   0  0  0  0  0  0  0  0  0  0  0  0
    0.0489   -1.0083   -0.4029 C   0  0  0  0  0  0  0  0  0  0  0  0
   -0.1402   -2.5032   -2.3253 C   0  0  0  0  0  0  0  0  0  0  0  0
   -1.5133   -4.9841   -4.4272 C   0  0  0  0  0  0  0  0  0  0  0  0
    0.3519   -2.0775    0.4422 C   0  0  0  0  0  0  0  0  0  0  0  0
   -1.8854   -4.4384   -5.6582 C   0  0  0  0  0  0  0  0  0  0  0  0
    0.1604   -3.5565   -1.4826 C   0  0  0  0  0  0  0  0  0  0  0  0
   -0.1562   -5.1275   -4.0888 C   0  0  0  0  0  0  0  0  0  0  0  0
    0.8444   -4.7269   -4.9775 C   0  0  0  0  0  0  0  0  0  0  0  0
    0.4008   -3.3366   -0.1231 C   0  0  0  0  0  0  0  0  0  0  0  0
   -0.8780   -4.0509   -6.5176 C   0  0  0  0  0  0  0  0  0  0  0  0
    0.4503   -4.1911   -6.1864 C   0  0  0  0  0  0  0  0  0  0  0  0
    0.3033   -4.9945   -1.6833 C   0  0  0  0  0  0  0  0  0  0  0  0
    0.6440   -5.6207   -0.3620 C   0  0  0  0  0  0  0  0  0  0  0  0
    0.1687   -5.6938   -2.8117 C   0  0  0  0  0  0  0  0  0  0  0  0
    2.2762   -4.8594   -4.6549 C   0  0  0  0  0  0  0  0  0  0  0  0
    0.3223   -3.3134   -8.1599 C   0  0  0  0  0  0  0  0  0  0  0  0
    0.6826   -4.5427    0.5281 N   0  0  0  0  0  0  0  0  0  0  0  0
    2.8693   -3.8825   -4.0630 O   0  5  0  0  0  0  0  0  0  0  0  0
    0.8372   -6.8024   -0.1432 O   0  0  0  0  0  0  0  0  0  0  0  0
    2.8841   -5.9473   -4.9765 O   0  0  0  0  0  0  0  0  0  0  0  0
   -1.0479   -3.5021   -7.7512 O   0  0  0  0  0  0  0  0  0  0  0  0
    1.2783   -3.7480   -7.1713 O   0  0  0  0  0  0  0  0  0  0  0  0
   -0.4282   -0.3694   -2.4102 H   0  0  0  0  0  0  0  0  0  0  0  0
    0.0012    0.0003   -0.0007 H   0  0  0  0  0  0  0  0  0  0  0  0
   -0.3291   -2.6545   -3.3823 H   0  0  0  0  0  0  0  0  0  0  0  0
   -2.2924   -5.2953   -3.7344 H   0  0  0  0  0  0  0  0  0  0  0  0
    0.5403   -1.9161    1.4974 H   0  0  0  0  0  0  0  0  0  0  0  0
   -2.9310   -4.3267   -5.9224 H   0  0  0  0  0  0  0  0  0  0  0  0
    0.2882   -6.7757   -2.7526 H   0  0  0  0  0  0  0  0  0  0  0  0
    0.4932   -3.8755   -9.0852 H   0  0  0  0  0  0  0  0  0  0  0  0
    0.4845   -2.2480   -8.3600 H   0  0  0  0  0  0  0  0  0  0  0  0
    0.8882   -4.6244    1.5170 H   0  0  0  0  0  0  0  0  0  0  0  0
  1  2  1  0  0  0  0
  1  3  2  0  0  0  0
  2  5  2  0  0  0  0
  3  7  1  0  0  0  0
  4  6  2  0  0  0  0
  4  8  1  0  0  0  0
  5 10  1  0  0  0  0
  6 11  1  0  0  0  0
  7 10  2  0  0  0  0
  7 13  1  0  0  0  0
  8  9  2  0  0  0  0
  8 15  1  0  0  0  0
  9 12  1  0  0  0  0
  9 16  1  0  0  0  0
 10 18  1  0  0  0  0
 11 12  2  0  0  0  0
 11 22  1  0  0  0  0
 12 23  1  0  0  0  0
 13 14  1  0  0  0  0
 13 15  2  0  0  0  0
 14 18  1  0  0  0  0
 14 20  2  0  0  0  0
 16 19  1  0  0  0  0
 16 21  2  0  0  0  0
 17 22  1  0  0  0  0
 17 23  1  0  0  0  0
  1 24  1  0  0  0  0
  2 25  1  0  0  0  0
  3 26  1  0  0  0  0
  4 27  1  0  0  0  0
  5 28  1  0  0  0  0
  6 29  1  0  0  0  0
 15 30  1  0  0  0  0
 17 31  1  0  0  0  0
 17 32  1  0  0  0  0
 18 33  1  0  0  0  0
M  CHG  1  19  -1
M  END
$$$$
