@<TRIPOS>MOLECULE
AVX17384_1
   44    46     0     0     0
SMALL
NO_CHARGES

@<TRIPOS>ATOM
      1 C1          4.5854   -6.1473    5.4165 C.ar      1 MOL         0.0000
      2 C2          5.0073   -7.1735    4.5713 C.ar      1 MOL         0.0000
      3 C3          3.7933   -5.1135    4.9170 C.ar      1 MOL         0.0000
      4 C4          4.6373   -7.1659    3.2265 C.ar      1 MOL         0.0000
      5 C5          3.3146   -7.2642    0.6170 C.2       1 MOL         0.0000
      6 C6          3.4232   -5.1059    3.5721 C.ar      1 MOL         0.0000
      7 C7          2.9707   -6.8137   -0.6341 C.2       1 MOL         0.0000
      8 C8          3.8452   -6.1321    2.7269 C.ar      1 MOL         0.0000
      9 C9          2.9659   -5.4110   -0.5141 C.2       1 MOL         0.0000
     10 C10         2.5939   -4.0082    3.0879 C.2       1 MOL         0.0000
     11 C11        -0.9995   -1.9910   -1.1141 C.3       1 MOL         0.0000
     12 C12        -0.2060   -0.7104   -0.8871 C.3       1 MOL         0.0000
     13 C13        -0.4985   -2.7109   -2.3633 C.3       1 MOL         0.0000
     14 C14         1.2892   -0.9946   -0.9058 C.3       1 MOL         0.0000
     15 C15         1.0185   -2.8920   -2.3305 C.3       1 MOL         0.0000
     16 C16         2.6750   -7.6251   -1.8267 C.3       1 MOL         0.0000
     17 C17         2.6581   -4.3976   -1.5770 C.3       1 MOL         0.0000
     18 N1          3.2816   -4.9977    0.7162 N.2       1 MOL         0.0000
     19 N2          3.4879   -6.1475    1.3806 N.pl3     1 MOL         0.0000
     20 N3          1.2146   -4.1682    3.1495 N.am      1 MOL         0.0000
     21 O1          3.1006   -2.9752    2.6218 O.2       1 MOL         0.0000
     22 O2          1.6760   -1.6405   -2.1184 O.3       1 MOL         0.0000
     23 O3          1.3630   -3.8631   -1.3466 O.3       1 MOL         0.0000
     24 H1          4.8734   -6.1528    6.4638 H         1 MOL         0.0000
     25 H2          5.6238   -7.9785    4.9606 H         1 MOL         0.0000
     26 H3          3.4705   -4.3199    5.5862 H         1 MOL         0.0000
     27 H4          4.9742   -7.9729    2.5799 H         1 MOL         0.0000
     28 H5          3.4463   -8.2625    1.0134 H         1 MOL         0.0000
     29 H6         -0.8945   -2.6475   -0.2418 H         1 MOL         0.0000
     30 H7         -2.0657   -1.7604   -1.2159 H         1 MOL         0.0000
     31 H8         -0.4474   -0.0020   -1.6892 H         1 MOL         0.0000
     32 H9         -0.4942   -0.2466    0.0620 H         1 MOL         0.0000
     33 H10        -1.0006   -3.6808   -2.4497 H         1 MOL         0.0000
     34 H11        -0.7680   -2.1089   -3.2398 H         1 MOL         0.0000
     35 H12         1.8456   -0.0541   -0.8396 H         1 MOL         0.0000
     36 H13         1.5876   -1.6109   -0.0499 H         1 MOL         0.0000
     37 H14         1.3467   -3.2760   -3.3026 H         1 MOL         0.0000
     38 H15         1.6010   -7.8719   -1.8876 H         1 MOL         0.0000
     39 H16         2.9502   -7.1070   -2.7628 H         1 MOL         0.0000
     40 H17         3.2355   -8.5773   -1.8331 H         1 MOL         0.0000
     41 H18         3.3888   -3.5817   -1.5637 H         1 MOL         0.0000
     42 H19         2.6854   -4.8575   -2.5707 H         1 MOL         0.0000
     43 H20         0.8302   -5.0292    3.5232 H         1 MOL         0.0000
     44 H21         0.5844   -3.4405    2.8280 H         1 MOL         0.0000
@<TRIPOS>BOND
     1    1    2 ar
     2    1    3 ar
     3    2    4 ar
     4    3    6 ar
     5    4    8 ar
     6    5    7 2
     7    5   19 1
     8    6    8 ar
     9    6   10 1
    10    7    9 1
    11    7   16 1
    12    8   19 1
    13    9   17 1
    14    9   18 2
    15   10   20 am
    16   10   21 2
    17   11   12 1
    18   11   13 1
    19   12   14 1
    20   13   15 1
    21   14   22 1
    22   15   22 1
    23   15   23 1
    24   17   23 1
    25   18   19 1
    26    1   24 1
    27    2   25 1
    28    3   26 1
    29    4   27 1
    30    5   28 1
    31   11   29 1
    32   11   30 1
    33   12   31 1
    34   12   32 1
    35   13   33 1
    36   13   34 1
    37   14   35 1
    38   14   36 1
    39   15   37 1
    40   16   38 1
    41   16   39 1
    42   16   40 1
    43   17   41 1
    44   17   42 1
    45   20   43 1
    46   20   44 1
