@<TRIPOS>MOLECULE
AVX17542_1
   57    58     0     0     0
SMALL
NO_CHARGES

@<TRIPOS>ATOM
      1 C1         -2.5816    2.6097   -1.4340 C.ar      1 MOL         0.0000
      2 C2         -2.8069    3.5984   -2.3948 C.ar      1 MOL         0.0000
      3 C3         -3.1356    0.8641   -3.0384 C.ar      1 MOL         0.0000
      4 C4         -2.7449    1.2504   -1.7539 C.ar      1 MOL         0.0000
      5 C5         -3.1918    3.1904   -3.6554 C.ar      1 MOL         0.0000
      6 C6         -3.3516    1.8599   -3.9686 C.ar      1 MOL         0.0000
      7 C7         -3.3125   -0.5518   -3.3987 C.2       1 MOL         0.0000
      8 C8         -0.7198   -2.1045    2.4610 C.2       1 MOL         0.0000
      9 C9         -3.7966    3.0391   -5.7274 C.3       1 MOL         0.0000
     10 C10         2.0052    0.2419   -1.2482 C.3       1 MOL         0.0000
     11 C11         2.1417    1.4838    0.9196 C.3       1 MOL         0.0000
     12 C12        -2.4894    0.2190   -0.6808 C.3       1 MOL         0.0000
     13 C13        -1.5106   -2.0132    3.7559 C.3       1 MOL         0.0000
     14 C14        -2.0140   -0.6056    4.0722 C.3       1 MOL         0.0000
     15 C15        -0.8693    0.3889    4.2874 C.3       1 MOL         0.0000
     16 C16        -0.1114    0.7480    0.0855 C.3       1 MOL         0.0000
     17 C17        -0.9724   -1.6815    0.0179 C.3       1 MOL         0.0000
     18 C18        -1.4071    1.7843    4.5697 C.3       1 MOL         0.0000
     19 C19         1.3900    0.3982    0.1429 C.3       1 MOL         0.0000
     20 C20        -1.0240   -0.2830   -0.6244 C.3       1 MOL         0.0000
     21 N1         -1.4796   -1.7139    1.3623 N.am      1 MOL         0.0000
     22 N2         -0.2695    2.7028    4.8160 N.4       1 MOL         0.0000
     23 O1         -2.3037   -1.2039   -3.8635 O.co2     1 MOL         0.0000
     24 O2         -4.4703   -1.0925   -3.2378 O.co2     1 MOL         0.0000
     25 O3          0.4540   -2.4618    2.4133 O.2       1 MOL         0.0000
     26 O4         -3.4533    4.0055   -4.7133 O.3       1 MOL         0.0000
     27 O5         -3.7335    1.6754   -5.2617 O.3       1 MOL         0.0000
     28 H1         -2.2769    2.9020   -0.4319 H         1 MOL         0.0000
     29 H2         -2.6820    4.6476   -2.1523 H         1 MOL         0.0000
     30 H3         -4.8152    3.2437   -6.0766 H         1 MOL         0.0000
     31 H4         -3.1055    3.1543   -6.5703 H         1 MOL         0.0000
     32 H5          1.8955    1.1593   -1.8362 H         1 MOL         0.0000
     33 H6          3.0740    0.0127   -1.1766 H         1 MOL         0.0000
     34 H7          1.5363   -0.5765   -1.8023 H         1 MOL         0.0000
     35 H8          2.0457    2.4550    0.4225 H         1 MOL         0.0000
     36 H9          3.2090    1.2475    0.9842 H         1 MOL         0.0000
     37 H10         1.7539    1.5853    1.9390 H         1 MOL         0.0000
     38 H11        -3.1648   -0.6261   -0.8709 H         1 MOL         0.0000
     39 H12        -2.7875    0.6205    0.2964 H         1 MOL         0.0000
     40 H13        -0.8983   -2.3917    4.5828 H         1 MOL         0.0000
     41 H14        -2.3734   -2.6826    3.6508 H         1 MOL         0.0000
     42 H15        -2.6734   -0.2483    3.2722 H         1 MOL         0.0000
     43 H16        -2.6186   -0.6513    4.9866 H         1 MOL         0.0000
     44 H17        -0.2475    0.0546    5.1273 H         1 MOL         0.0000
     45 H18        -0.2222    0.4163    3.4028 H         1 MOL         0.0000
     46 H19        -0.4758    0.9016    1.1099 H         1 MOL         0.0000
     47 H20        -0.2136    1.7178   -0.4181 H         1 MOL         0.0000
     48 H21        -1.5662   -2.3924   -0.5671 H         1 MOL         0.0000
     49 H22         0.0505   -2.0684    0.0451 H         1 MOL         0.0000
     50 H23        -2.0343    1.8088    5.4658 H         1 MOL         0.0000
     51 H24        -1.9633    2.1891    3.7191 H         1 MOL         0.0000
     52 H25         1.5250   -0.5421    0.6895 H         1 MOL         0.0000
     53 H26        -0.6696   -0.3978   -1.6566 H         1 MOL         0.0000
     54 H27        -2.4521   -1.4470    1.5117 H         1 MOL         0.0000
     55 H28         0.3783    2.3089    5.5071 H         1 MOL         0.0000
     56 H29        -0.5982    3.6074    5.1716 H         1 MOL         0.0000
     57 H30         0.2571    2.8757    3.9526 H         1 MOL         0.0000
@<TRIPOS>BOND
     1    1    2 ar
     2    1    4 ar
     3    2    5 ar
     4    3    4 ar
     5    3    6 ar
     6    3    7 1
     7    4   12 1
     8    5    6 ar
     9    5   26 1
    10    6   27 1
    11    7   23 1
    12    7   24 2
    13    8   13 1
    14    8   21 am
    15    8   25 2
    16    9   26 1
    17    9   27 1
    18   10   19 1
    19   11   19 1
    20   12   20 1
    21   13   14 1
    22   14   15 1
    23   15   18 1
    24   16   19 1
    25   16   20 1
    26   17   20 1
    27   17   21 1
    28   18   22 1
    29    1   28 1
    30    2   29 1
    31    9   30 1
    32    9   31 1
    33   10   32 1
    34   10   33 1
    35   10   34 1
    36   11   35 1
    37   11   36 1
    38   11   37 1
    39   12   38 1
    40   12   39 1
    41   13   40 1
    42   13   41 1
    43   14   42 1
    44   14   43 1
    45   15   44 1
    46   15   45 1
    47   16   46 1
    48   16   47 1
    49   17   48 1
    50   17   49 1
    51   18   50 1
    52   18   51 1
    53   19   52 1
    54   20   53 1
    55   21   54 1
    56   22   55 1
    57   22   56 1
    58   22   57 1
