@<TRIPOS>MOLECULE
AVX17386_0
   33    35     0     0     0
SMALL
NO_CHARGES

@<TRIPOS>ATOM
      1 C1          2.6936    4.7136    1.2226 C.ar      1 MOL         0.0000
      2 C2          3.3924    4.6570    0.0183 C.ar      1 MOL         0.0000
      3 C3          2.1798    3.5508    1.8080 C.ar      1 MOL         0.0000
      4 C4          3.5999    3.4405   -0.6381 C.ar      1 MOL         0.0000
      5 C5          2.3765    2.3127    1.1646 C.ar      1 MOL         0.0000
      6 C6          2.0060    0.9712    1.4614 C.2       1 MOL         0.0000
      7 C7          3.0806    2.2862   -0.0412 C.ar      1 MOL         0.0000
      8 C8          2.4831    0.1713    0.4488 C.2       1 MOL         0.0000
      9 C9          1.2204    0.5067    2.6821 C.2       1 MOL         0.0000
     10 C10         2.3618   -1.2844    0.2932 C.2       1 MOL         0.0000
     11 C11         4.5389   -1.6151    1.5775 C.3       1 MOL         0.0000
     12 C12         3.3211   -3.5373    0.6363 C.3       1 MOL         0.0000
     13 C13         4.7303   -2.4320    2.8498 C.3       1 MOL         0.0000
     14 C14         3.5544   -4.2667    1.9513 C.3       1 MOL         0.0000
     15 N1          3.1300    0.9734   -0.4526 N.pl3     1 MOL         0.0000
     16 N2          3.3610   -2.0903    0.8415 N.am      1 MOL         0.0000
     17 O1          0.9877   -0.7321    2.7694 O.co2     1 MOL         0.0000
     18 O2          0.8679    1.3997    3.5036 O.co2     1 MOL         0.0000
     19 O3          1.3759   -1.6865   -0.3231 O.2       1 MOL         0.0000
     20 O4          4.7786   -3.8284    2.5467 O.3       1 MOL         0.0000
     21 H1          2.5448    5.6715    1.7139 H         1 MOL         0.0000
     22 H2          3.7830    5.5721   -0.4187 H         1 MOL         0.0000
     23 H3          1.6366    3.6117    2.7468 H         1 MOL         0.0000
     24 H4          4.1435    3.3976   -1.5757 H         1 MOL         0.0000
     25 H5          4.4701   -0.5526    1.8218 H         1 MOL         0.0000
     26 H6          5.3962   -1.7547    0.9083 H         1 MOL         0.0000
     27 H7          4.1229   -3.7725   -0.0736 H         1 MOL         0.0000
     28 H8          2.3714   -3.8472    0.1904 H         1 MOL         0.0000
     29 H9          5.6743   -2.1597    3.3320 H         1 MOL         0.0000
     30 H10         3.9218   -2.2469    3.5672 H         1 MOL         0.0000
     31 H11         2.7299   -4.0998    2.6546 H         1 MOL         0.0000
     32 H12         3.6323   -5.3441    1.7757 H         1 MOL         0.0000
     33 H13         3.5803    0.6517   -1.2985 H         1 MOL         0.0000
@<TRIPOS>BOND
     1    1    2 ar
     2    1    3 ar
     3    2    4 ar
     4    3    5 ar
     5    4    7 ar
     6    5    6 1
     7    5    7 ar
     8    6    8 2
     9    6    9 1
    10    7   15 1
    11    8   10 1
    12    8   15 1
    13    9   17 1
    14    9   18 2
    15   10   16 am
    16   10   19 2
    17   11   13 1
    18   11   16 1
    19   12   14 1
    20   12   16 1
    21   13   20 1
    22   14   20 1
    23    1   21 1
    24    2   22 1
    25    3   23 1
    26    4   24 1
    27   11   25 1
    28   11   26 1
    29   12   27 1
    30   12   28 1
    31   13   29 1
    32   13   30 1
    33   14   31 1
    34   14   32 1
    35   15   33 1
