AVX17258_0
  -OEChem-04011314523D

 32 34  0     0  0  0  0  0  0999 V2000
    2.2416   -0.0541   -1.7786 C   0  0  0  0  0  0  0  0  0  0  0  0
    0.9138    0.3216   -2.0475 C   0  0  0  0  0  0  0  0  0  0  0  0
   -2.7164    4.3977    0.2746 C   0  0  0  0  0  0  0  0  0  0  0  0
   -2.2134    5.0032    1.4260 C   0  0  0  0  0  0  0  0  0  0  0  0
    3.2258    0.9116   -1.5535 C   0  0  0  0  0  0  0  0  0  0  0  0
   -1.9254    4.3130   -0.8713 C   0  0  0  0  0  0  0  0  0  0  0  0
    0.5480    1.6689   -2.0956 C   0  0  0  0  0  0  0  0  0  0  0  0
   -0.1286    5.4397    0.2858 C   0  0  0  0  0  0  0  0  0  0  0  0
   -0.9195    5.5243    1.4317 C   0  0  0  0  0  0  0  0  0  0  0  0
    2.8542    2.2424   -1.6034 C   0  0  0  0  0  0  0  0  0  0  0  0
   -0.6316    4.8341   -0.8656 C   0  0  0  0  0  0  0  0  0  0  0  0
    1.5361    2.6108   -1.8702 C   0  0  0  0  0  0  0  0  0  0  0  0
    2.6810    4.6003   -1.5896 C   0  0  0  0  0  0  0  0  0  0  0  0
   -0.3885    6.1636    2.6463 C   0  0  0  0  0  0  0  0  0  0  0  0
    3.6912    3.4648   -1.4035 C   0  0  0  0  0  0  0  0  0  0  0  0
    0.2198    4.7433   -2.0990 C   0  0  0  0  0  0  0  0  0  0  0  0
    1.4392    4.0084   -1.8607 N   0  0  0  0  0  0  0  0  0  0  0  0
    0.8094    6.6362    2.6248 O   0  5  0  0  0  0  0  0  0  0  0  0
    2.9508    5.7895   -1.5074 O   0  0  0  0  0  0  0  0  0  0  0  0
   -1.1388    6.2292    3.6910 O   0  0  0  0  0  0  0  0  0  0  0  0
    2.5035   -1.1084   -1.7456 H   0  0  0  0  0  0  0  0  0  0  0  0
    0.1651   -0.4471   -2.2197 H   0  0  0  0  0  0  0  0  0  0  0  0
   -3.7238    3.9919    0.2706 H   0  0  0  0  0  0  0  0  0  0  0  0
   -2.8380    5.0636    2.3137 H   0  0  0  0  0  0  0  0  0  0  0  0
    4.2496    0.6202   -1.3467 H   0  0  0  0  0  0  0  0  0  0  0  0
   -2.3255    3.8394   -1.7638 H   0  0  0  0  0  0  0  0  0  0  0  0
   -0.4783    1.9498   -2.3030 H   0  0  0  0  0  0  0  0  0  0  0  0
    0.8805    5.8454    0.2887 H   0  0  0  0  0  0  0  0  0  0  0  0
    4.1050    3.5056   -0.3927 H   0  0  0  0  0  0  0  0  0  0  0  0
    4.4719    3.5429   -2.1646 H   0  0  0  0  0  0  0  0  0  0  0  0
   -0.3237    4.2419   -2.9072 H   0  0  0  0  0  0  0  0  0  0  0  0
    0.4946    5.7396   -2.4610 H   0  0  0  0  0  0  0  0  0  0  0  0
  1  2  2  0  0  0  0
  1  5  1  0  0  0  0
  2  7  1  0  0  0  0
  3  4  2  0  0  0  0
  3  6  1  0  0  0  0
  4  9  1  0  0  0  0
  5 10  2  0  0  0  0
  6 11  2  0  0  0  0
  7 12  2  0  0  0  0
  8  9  2  0  0  0  0
  8 11  1  0  0  0  0
  9 14  1  0  0  0  0
 10 12  1  0  0  0  0
 10 15  1  0  0  0  0
 11 16  1  0  0  0  0
 12 17  1  0  0  0  0
 13 15  1  0  0  0  0
 13 17  1  0  0  0  0
 13 19  2  0  0  0  0
 14 18  1  0  0  0  0
 14 20  2  0  0  0  0
 16 17  1  0  0  0  0
  1 21  1  0  0  0  0
  2 22  1  0  0  0  0
  3 23  1  0  0  0  0
  4 24  1  0  0  0  0
  5 25  1  0  0  0  0
  6 26  1  0  0  0  0
  7 27  1  0  0  0  0
  8 28  1  0  0  0  0
 15 29  1  0  0  0  0
 15 30  1  0  0  0  0
 16 31  1  0  0  0  0
 16 32  1  0  0  0  0
M  CHG  1  18  -1
M  END
$$$$
