@<TRIPOS>MOLECULE
AVX101123_1
   55    57     0     0     0
SMALL
NO_CHARGES

@<TRIPOS>ATOM
      1 C1          5.1935   -2.0654   -0.8997 C.ar      1 MOL         0.0000
      2 C2          4.6963   -0.8394   -0.4579 C.ar      1 MOL         0.0000
      3 C3          5.2067   -3.1635   -0.0396 C.ar      1 MOL         0.0000
      4 C4          4.2123   -0.7113    0.8440 C.ar      1 MOL         0.0000
      5 C5          4.7227   -3.0355    1.2624 C.ar      1 MOL         0.0000
      6 C6          6.8582   -2.6534    3.7803 C.ar      1 MOL         0.0000
      7 C7          7.7168   -3.6976    4.1322 C.ar      1 MOL         0.0000
      8 C8          5.3965   -3.1652    5.6590 C.ar      1 MOL         0.0000
      9 C9          4.2255   -1.8094    1.7042 C.ar      1 MOL         0.0000
     10 C10         5.7047   -2.3887    4.5394 C.ar      1 MOL         0.0000
     11 C11         7.3897   -4.4492    5.2421 C.ar      1 MOL         0.0000
     12 C12         6.2607   -4.1900    5.9851 C.ar      1 MOL         0.0000
     13 C13         4.1960   -2.9079    6.4706 C.2       1 MOL         0.0000
     14 C14         0.6471   -1.6972    4.4960 C.2       1 MOL         0.0000
     15 C15         7.2951   -5.8724    6.8692 C.3       1 MOL         0.0000
     16 C16         4.8072   -1.2481    4.1183 C.3       1 MOL         0.0000
     17 C17         0.0391   -1.6852    5.8891 C.3       1 MOL         0.0000
     18 C18        -1.1694   -2.6077    6.0417 C.3       1 MOL         0.0000
     19 C19        -1.7110   -2.6278    7.4742 C.3       1 MOL         0.0000
     20 C20         2.5206   -0.6797    3.2051 C.3       1 MOL         0.0000
     21 C21        -2.9305   -3.5319    7.5818 C.3       1 MOL         0.0000
     22 C22         3.6974   -1.6702    3.1262 C.3       1 MOL         0.0000
     23 N1          1.7388   -0.8453    4.4093 N.am      1 MOL         0.0000
     24 N2         -3.3935   -3.5576    8.9901 N.4       1 MOL         0.0000
     25 O1          4.2827   -2.0941    7.4650 O.co2     1 MOL         0.0000
     26 O2          3.0980   -3.5053    6.1600 O.co2     1 MOL         0.0000
     27 O3          0.2214   -2.3982    3.5822 O.2       1 MOL         0.0000
     28 O4          8.1024   -5.4990    5.7338 O.3       1 MOL         0.0000
     29 O5          6.1251   -5.0454    7.0349 O.3       1 MOL         0.0000
     30 H1          5.5690   -2.1653   -1.9139 H         1 MOL         0.0000
     31 H2          4.6849    0.0154   -1.1278 H         1 MOL         0.0000
     32 H3          5.5927   -4.1185   -0.3836 H         1 MOL         0.0000
     33 H4          3.8270    0.2479    1.1797 H         1 MOL         0.0000
     34 H5          4.7370   -3.8964    1.9255 H         1 MOL         0.0000
     35 H6          7.0911   -2.0440    2.9103 H         1 MOL         0.0000
     36 H7          8.6072   -3.9050    3.5497 H         1 MOL         0.0000
     37 H8          6.9743   -6.9130    6.7446 H         1 MOL         0.0000
     38 H9          7.9079   -5.7987    7.7750 H         1 MOL         0.0000
     39 H10         5.4135   -0.4344    3.6996 H         1 MOL         0.0000
     40 H11         4.3500   -0.8320    5.0264 H         1 MOL         0.0000
     41 H12        -0.2319   -0.6575    6.1582 H         1 MOL         0.0000
     42 H13         0.8239   -2.0118    6.5826 H         1 MOL         0.0000
     43 H14        -1.9642   -2.3123    5.3463 H         1 MOL         0.0000
     44 H15        -0.8657   -3.6249    5.7647 H         1 MOL         0.0000
     45 H16        -0.9273   -2.9802    8.1565 H         1 MOL         0.0000
     46 H17        -1.9769   -1.6125    7.7911 H         1 MOL         0.0000
     47 H18         2.8895    0.3515    3.2158 H         1 MOL         0.0000
     48 H19         1.8385   -0.7813    2.3547 H         1 MOL         0.0000
     49 H20        -2.7011   -4.5650    7.3044 H         1 MOL         0.0000
     50 H21        -3.7669   -3.1654    6.9794 H         1 MOL         0.0000
     51 H22         3.3131   -2.6498    3.4449 H         1 MOL         0.0000
     52 H23         2.0054   -0.2959    5.2209 H         1 MOL         0.0000
     53 H24        -3.5556   -2.6074    9.3413 H         1 MOL         0.0000
     54 H25        -2.6972   -4.0038    9.5975 H         1 MOL         0.0000
     55 H26        -4.2715   -4.0809    9.0791 H         1 MOL         0.0000
@<TRIPOS>BOND
     1    1    2 ar
     2    1    3 ar
     3    2    4 ar
     4    3    5 ar
     5    4    9 ar
     6    5    9 ar
     7    6    7 ar
     8    6   10 ar
     9    7   11 ar
    10    8   10 ar
    11    8   12 ar
    12    8   13 1
    13    9   22 1
    14   10   16 1
    15   11   12 ar
    16   11   28 1
    17   12   29 1
    18   13   25 1
    19   13   26 2
    20   14   17 1
    21   14   23 am
    22   14   27 2
    23   15   28 1
    24   15   29 1
    25   16   22 1
    26   17   18 1
    27   18   19 1
    28   19   21 1
    29   20   22 1
    30   20   23 1
    31   21   24 1
    32    1   30 1
    33    2   31 1
    34    3   32 1
    35    4   33 1
    36    5   34 1
    37    6   35 1
    38    7   36 1
    39   15   37 1
    40   15   38 1
    41   16   39 1
    42   16   40 1
    43   17   41 1
    44   17   42 1
    45   18   43 1
    46   18   44 1
    47   19   45 1
    48   19   46 1
    49   20   47 1
    50   20   48 1
    51   21   49 1
    52   21   50 1
    53   22   51 1
    54   23   52 1
    55   24   53 1
    56   24   54 1
    57   24   55 1
