@<TRIPOS>MOLECULE
AVX17264_0
   33    34     0     0     0
SMALL
NO_CHARGES

@<TRIPOS>ATOM
      1 C1         -2.2565    0.5880   -1.9292 C.ar      1 MOL         0.0000
      2 C2         -2.0579    1.7358   -1.1650 C.ar      1 MOL         0.0000
      3 C3         -1.3611   -0.4799   -1.8368 C.ar      1 MOL         0.0000
      4 C4         -0.9633    1.8199   -0.3077 C.ar      1 MOL         0.0000
      5 C5         -0.2539   -0.4154   -0.9780 C.ar      1 MOL         0.0000
      6 C6         -0.0692    0.7479   -0.2178 C.ar      1 MOL         0.0000
      7 C7          0.6982   -1.5791   -0.8836 C.3       1 MOL         0.0000
      8 C8          1.5572   -1.4728    1.4037 C.3       1 MOL         0.0000
      9 C9          1.0230   -0.0984    1.8329 C.3       1 MOL         0.0000
     10 C10         2.0021    2.1486    4.8283 C.3       1 MOL         0.0000
     11 C11         1.8870    0.4811    2.9526 C.3       1 MOL         0.0000
     12 C12         1.1528    1.5897    3.6980 C.3       1 MOL         0.0000
     13 N1          0.7145   -2.1948    0.4452 N.3       1 MOL         0.0000
     14 N2          1.0820    0.8676    0.6839 N.4       1 MOL         0.0000
     15 H1         -3.1100    0.5226   -2.5980 H         1 MOL         0.0000
     16 H2         -2.7557    2.5648   -1.2383 H         1 MOL         0.0000
     17 H3         -1.5381   -1.3661   -2.4416 H         1 MOL         0.0000
     18 H4         -0.8169    2.7208    0.2818 H         1 MOL         0.0000
     19 H5          0.3903   -2.3570   -1.5927 H         1 MOL         0.0000
     20 H6          1.7026   -1.2762   -1.2053 H         1 MOL         0.0000
     21 H7          2.5805   -1.3921    1.0147 H         1 MOL         0.0000
     22 H8          1.6299   -2.1088    2.2946 H         1 MOL         0.0000
     23 H9         -0.0162   -0.1552    2.1816 H         1 MOL         0.0000
     24 H10         2.2765    1.3622    5.5386 H         1 MOL         0.0000
     25 H11         1.4487    2.9203    5.3725 H         1 MOL         0.0000
     26 H12         2.9220    2.5992    4.4420 H         1 MOL         0.0000
     27 H13         2.1559   -0.3242    3.6418 H         1 MOL         0.0000
     28 H14         2.8134    0.8669    2.5180 H         1 MOL         0.0000
     29 H15         0.8959    2.4007    3.0063 H         1 MOL         0.0000
     30 H16         0.2126    1.2055    4.1106 H         1 MOL         0.0000
     31 H17        -0.2344   -2.2898    0.8049 H         1 MOL         0.0000
     32 H18         1.9436    0.7454    0.1333 H         1 MOL         0.0000
     33 H19         1.1089    1.8360    1.0336 H         1 MOL         0.0000
@<TRIPOS>BOND
     1    1    2 ar
     2    1    3 ar
     3    2    4 ar
     4    3    5 ar
     5    4    6 ar
     6    5    6 ar
     7    5    7 1
     8    6   14 1
     9    7   13 1
    10    8    9 1
    11    8   13 1
    12    9   11 1
    13    9   14 1
    14   10   12 1
    15   11   12 1
    16    1   15 1
    17    2   16 1
    18    3   17 1
    19    4   18 1
    20    7   19 1
    21    7   20 1
    22    8   21 1
    23    8   22 1
    24    9   23 1
    25   10   24 1
    26   10   25 1
    27   10   26 1
    28   11   27 1
    29   11   28 1
    30   12   29 1
    31   12   30 1
    32   13   31 1
    33   14   32 1
    34   14   33 1
