@<TRIPOS>MOLECULE
AVX101122_0
   61    63     0     0     0
SMALL
NO_CHARGES

@<TRIPOS>ATOM
      1 C1          2.8271    3.8090    0.1339 C.ar      1 MOL         0.0000
      2 C2          1.8520    4.4186   -0.6554 C.ar      1 MOL         0.0000
      3 C3          2.7642   -1.9992   -6.1486 C.ar      1 MOL         0.0000
      4 C4          2.9467    2.4193    0.1454 C.ar      1 MOL         0.0000
      5 C5          0.9963    3.6386   -1.4332 C.ar      1 MOL         0.0000
      6 C6          2.1097   -1.4168   -5.0632 C.ar      1 MOL         0.0000
      7 C7         -0.8165   -2.6269    0.0606 C.ar      1 MOL         0.0000
      8 C8          0.9240   -3.3115   -1.4688 C.ar      1 MOL         0.0000
      9 C9          2.1095   -2.1210   -7.3743 C.ar      1 MOL         0.0000
     10 C10        -1.7644   -3.2837   -0.7241 C.ar      1 MOL         0.0000
     11 C11        -0.0239   -3.9683   -2.2536 C.ar      1 MOL         0.0000
     12 C12         2.0910    1.6392   -0.6324 C.ar      1 MOL         0.0000
     13 C13         0.1459   -1.0780   -6.4292 C.ar      1 MOL         0.0000
     14 C14         0.5277   -2.6408   -0.3118 C.ar      1 MOL         0.0000
     15 C15         1.1158    2.2488   -1.4217 C.ar      1 MOL         0.0000
     16 C16         0.8006   -0.9562   -5.2035 C.ar      1 MOL         0.0000
     17 C17        -1.3681   -3.9544   -1.8811 C.ar      1 MOL         0.0000
     18 C18         0.8004   -1.6604   -7.5145 C.ar      1 MOL         0.0000
     19 C19         2.2370    0.1902   -0.6011 C.2       1 MOL         0.0000
     20 C20        -1.2409   -0.5951   -6.5818 C.2       1 MOL         0.0000
     21 C21         1.0080    1.9273   -4.5641 C.3       1 MOL         0.0000
     22 C22        -1.8193   -5.2620   -3.8156 C.3       1 MOL         0.0000
     23 C23         0.9260   -2.3987   -9.7717 C.3       1 MOL         0.0000
     24 C24         1.5483   -1.9345    0.5330 C.3       1 MOL         0.0000
     25 C25         0.1819    1.4342   -2.2673 C.3       1 MOL         0.0000
     26 C26         0.1216   -0.3351   -4.0185 C.3       1 MOL         0.0000
     27 N1          1.4935   -0.5005    0.3614 N.am      1 MOL         0.0000
     28 N2          0.8364    0.8803   -3.5007 N.4       1 MOL         0.0000
     29 O1         -2.2060   -1.4089   -6.3380 O.co2     1 MOL         0.0000
     30 O2          3.0088   -0.3813   -1.3898 O.2       1 MOL         0.0000
     31 O3         -1.4316    0.6210   -6.9531 O.co2     1 MOL         0.0000
     32 O4         -2.2930   -4.5963   -2.6460 O.3       1 MOL         0.0000
     33 O5          0.1786   -1.7911   -8.7203 O.3       1 MOL         0.0000
     34 H1          3.4939    4.4160    0.7397 H         1 MOL         0.0000
     35 H2          1.7592    5.5008   -0.6637 H         1 MOL         0.0000
     36 H3          3.7838   -2.3568   -6.0395 H         1 MOL         0.0000
     37 H4          3.7100    1.9562    0.7656 H         1 MOL         0.0000
     38 H5          0.2402    4.1236   -2.0449 H         1 MOL         0.0000
     39 H6          2.6279   -1.3262   -4.1122 H         1 MOL         0.0000
     40 H7         -1.1341   -2.1069    0.9603 H         1 MOL         0.0000
     41 H8          1.9692   -3.3275   -1.7668 H         1 MOL         0.0000
     42 H9          2.6258   -2.5764   -8.2154 H         1 MOL         0.0000
     43 H10        -2.8101   -3.2695   -0.4286 H         1 MOL         0.0000
     44 H11         0.2911   -4.4892   -3.1534 H         1 MOL         0.0000
     45 H12         0.0141    2.2613   -4.8673 H         1 MOL         0.0000
     46 H13         1.5842    2.7488   -4.1342 H         1 MOL         0.0000
     47 H14         1.5403    1.4700   -5.4003 H         1 MOL         0.0000
     48 H15        -2.6589   -5.7322   -4.3334 H         1 MOL         0.0000
     49 H16        -1.0825   -6.0179   -3.5325 H         1 MOL         0.0000
     50 H17        -1.3509   -4.5290   -4.4767 H         1 MOL         0.0000
     51 H18         0.3149   -2.4415  -10.6766 H         1 MOL         0.0000
     52 H19         1.2242   -3.4067   -9.4726 H         1 MOL         0.0000
     53 H20         1.8187   -1.7993   -9.9657 H         1 MOL         0.0000
     54 H21         1.3890   -2.1534    1.5945 H         1 MOL         0.0000
     55 H22         2.5621   -2.2633    0.2817 H         1 MOL         0.0000
     56 H23        -0.2128    0.5782   -1.7094 H         1 MOL         0.0000
     57 H24        -0.6702    2.0336   -2.6055 H         1 MOL         0.0000
     58 H25        -0.8973   -0.0189   -4.2667 H         1 MOL         0.0000
     59 H26         0.0577   -1.0418   -3.1840 H         1 MOL         0.0000
     60 H27         0.9271    0.0221    1.0215 H         1 MOL         0.0000
     61 H28         1.7804    0.5766   -3.2264 H         1 MOL         0.0000
@<TRIPOS>BOND
     1    1    2 ar
     2    1    4 ar
     3    2    5 ar
     4    3    6 ar
     5    3    9 ar
     6    4   12 ar
     7    5   15 ar
     8    6   16 ar
     9    7   10 ar
    10    7   14 ar
    11    8   11 ar
    12    8   14 ar
    13    9   18 ar
    14   10   17 ar
    15   11   17 ar
    16   12   15 ar
    17   12   19 1
    18   13   16 ar
    19   13   18 ar
    20   13   20 1
    21   14   24 1
    22   15   25 1
    23   16   26 1
    24   17   32 1
    25   18   33 1
    26   19   27 am
    27   19   30 2
    28   20   29 1
    29   20   31 2
    30   21   28 1
    31   22   32 1
    32   23   33 1
    33   24   27 1
    34   25   28 1
    35   26   28 1
    36    1   34 1
    37    2   35 1
    38    3   36 1
    39    4   37 1
    40    5   38 1
    41    6   39 1
    42    7   40 1
    43    8   41 1
    44    9   42 1
    45   10   43 1
    46   11   44 1
    47   21   45 1
    48   21   46 1
    49   21   47 1
    50   22   48 1
    51   22   49 1
    52   22   50 1
    53   23   51 1
    54   23   52 1
    55   23   53 1
    56   24   54 1
    57   24   55 1
    58   25   56 1
    59   25   57 1
    60   26   58 1
    61   26   59 1
    62   27   60 1
    63   28   61 1
