AVX101120_0
  -OEChem-04011314513D

 71 74  0     1  0  0  0  0  0999 V2000
    9.3084   -1.3718   -0.2623 C   0  0  0  0  0  0  0  0  0  0  0  0
    8.5379   -0.2725    0.1164 C   0  0  0  0  0  0  0  0  0  0  0  0
    8.7696   -2.3441   -1.1050 C   0  0  0  0  0  0  0  0  0  0  0  0
    0.0109   -0.0841    2.4153 C   0  0  0  0  0  0  0  0  0  0  0  0
    7.2286   -0.1454   -0.3476 C   0  0  0  0  0  0  0  0  0  0  0  0
    7.4603   -2.2170   -1.5690 C   0  0  0  0  0  0  0  0  0  0  0  0
    4.5775   -2.1248   -1.9515 C   0  0  0  0  0  0  0  0  0  0  0  0
    0.4385   -0.4832    1.1490 C   0  0  0  0  0  0  0  0  0  0  0  0
    3.2682   -1.9979   -2.4154 C   0  0  0  0  0  0  0  0  0  0  0  0
   -0.0650    4.4296   -2.0337 C   0  0  0  0  0  0  0  0  0  0  0  0
    0.3516    3.3987    0.1112 C   0  0  0  0  0  0  0  0  0  0  0  0
   -1.3375   -0.1809    2.7588 C   0  0  0  0  0  0  0  0  0  0  0  0
   -1.4334    4.4389   -1.7634 C   0  0  0  0  0  0  0  0  0  0  0  0
   -1.0168    3.4081    0.3815 C   0  0  0  0  0  0  0  0  0  0  0  0
    4.7767    0.2811   -1.8554 C   0  0  0  0  0  0  0  0  0  0  0  0
    6.6898   -1.1176   -1.1903 C   0  0  0  0  0  0  0  0  0  0  0  0
    5.3318   -0.9853   -1.6714 C   0  0  0  0  0  0  0  0  0  0  0  0
    3.4674    0.4080   -2.3194 C   0  0  0  0  0  0  0  0  0  0  0  0
   -1.8309   -1.0759    0.5696 C   0  0  0  0  0  0  0  0  0  0  0  0
    0.8275    3.9094   -1.0964 C   0  0  0  0  0  0  0  0  0  0  0  0
    2.7131   -0.7315   -2.5993 C   0  0  0  0  0  0  0  0  0  0  0  0
   -0.4824   -0.9791    0.2262 C   0  0  0  0  0  0  0  0  0  0  0  0
   -1.9093    3.9282   -0.5558 C   0  0  0  0  0  0  0  0  0  0  0  0
   -2.2584   -0.6768    1.8359 C   0  0  0  0  0  0  0  0  0  0  0  0
    2.9118    1.7421   -2.5028 C   0  0  0  0  0  0  0  0  0  0  0  0
   -2.8101   -1.5969   -0.4049 C   0  0  0  0  0  0  0  0  0  0  0  0
   -0.9131    0.3966   -2.5911 C   0  0  0  0  0  0  0  0  0  0  0  0
   -3.6627    3.4009    0.9619 C   0  0  0  0  0  0  0  0  0  0  0  0
   -3.9152   -0.3301    3.5064 C   0  0  0  0  0  0  0  0  0  0  0  0
    2.3005    3.8998   -1.3869 C   0  0  0  0  0  0  0  0  0  0  0  0
    1.3027   -0.6241   -3.0994 C   0  0  0  0  0  0  0  0  0  0  0  0
    0.0063   -1.3997   -1.1286 C   0  0  0  0  0  0  0  0  0  0  0  0
    2.8461    2.5615   -1.3713 N   0  0  0  0  0  0  0  0  0  0  0  0
    0.3254   -0.2381   -2.0259 N   0  3  2  0  0  0  0  0  0  0  0  0
   -3.3916   -0.7671   -1.1962 O   0  5  0  0  0  0  0  0  0  0  0  0
    2.5025    2.1049   -3.6185 O   0  0  0  0  0  0  0  0  0  0  0  0
   -3.0448   -2.8608   -0.4254 O   0  0  0  0  0  0  0  0  0  0  0  0
   -3.2445    3.9387   -0.2918 O   0  0  0  0  0  0  0  0  0  0  0  0
   -3.5715   -0.7610    2.1913 O   0  0  0  0  0  0  0  0  0  0  0  0
   10.3283   -1.4697    0.0977 H   0  0  0  0  0  0  0  0  0  0  0  0
    8.9578    0.4855    0.7711 H   0  0  0  0  0  0  0  0  0  0  0  0
    9.3694   -3.1996   -1.4014 H   0  0  0  0  0  0  0  0  0  0  0  0
    0.7282    0.3009    3.1341 H   0  0  0  0  0  0  0  0  0  0  0  0
    6.6408    0.7176   -0.0435 H   0  0  0  0  0  0  0  0  0  0  0  0
    7.0540   -2.9825   -2.2258 H   0  0  0  0  0  0  0  0  0  0  0  0
    4.9961   -3.1188   -1.8132 H   0  0  0  0  0  0  0  0  0  0  0  0
    1.4911   -0.4041    0.8905 H   0  0  0  0  0  0  0  0  0  0  0  0
    2.6888   -2.8918   -2.6306 H   0  0  0  0  0  0  0  0  0  0  0  0
    0.2969    4.8294   -2.9771 H   0  0  0  0  0  0  0  0  0  0  0  0
    1.0397    2.9912    0.8475 H   0  0  0  0  0  0  0  0  0  0  0  0
   -1.6633    0.1324    3.7472 H   0  0  0  0  0  0  0  0  0  0  0  0
   -2.1237    4.8458   -2.4976 H   0  0  0  0  0  0  0  0  0  0  0  0
   -1.3812    3.0092    1.3241 H   0  0  0  0  0  0  0  0  0  0  0  0
    5.3625    1.1722   -1.6379 H   0  0  0  0  0  0  0  0  0  0  0  0
   -1.4148   -0.3465   -3.2136 H   0  0  0  0  0  0  0  0  0  0  0  0
   -1.5453    0.6991   -1.7541 H   0  0  0  0  0  0  0  0  0  0  0  0
   -0.6053    1.2608   -3.1829 H   0  0  0  0  0  0  0  0  0  0  0  0
   -4.7500    3.4706    1.0446 H   0  0  0  0  0  0  0  0  0  0  0  0
   -3.1884    3.9572    1.7744 H   0  0  0  0  0  0  0  0  0  0  0  0
   -3.3618    2.3521    1.0169 H   0  0  0  0  0  0  0  0  0  0  0  0
   -4.9904   -0.4498    3.6605 H   0  0  0  0  0  0  0  0  0  0  0  0
   -3.6327    0.7181    3.6328 H   0  0  0  0  0  0  0  0  0  0  0  0
   -3.3750   -0.9412    4.2333 H   0  0  0  0  0  0  0  0  0  0  0  0
    2.5026    4.3350   -2.3716 H   0  0  0  0  0  0  0  0  0  0  0  0
    2.8503    4.4941   -0.6495 H   0  0  0  0  0  0  0  0  0  0  0  0
    1.2186    0.1316   -3.8877 H   0  0  0  0  0  0  0  0  0  0  0  0
    0.9558   -1.5774   -3.5126 H   0  0  0  0  0  0  0  0  0  0  0  0
    0.9205   -1.9980   -1.0515 H   0  0  0  0  0  0  0  0  0  0  0  0
   -0.7444   -2.0031   -1.6501 H   0  0  0  0  0  0  0  0  0  0  0  0
    3.1364    2.1919   -0.4719 H   0  0  0  0  0  0  0  0  0  0  0  0
    0.7857    0.4739   -1.4429 H   0  0  0  0  0  0  0  0  0  0  0  0
  1  2  2  0  0  0  0
  1  3  1  0  0  0  0
  2  5  1  0  0  0  0
  3  6  2  0  0  0  0
  4  8  2  0  0  0  0
  4 12  1  0  0  0  0
  5 16  2  0  0  0  0
  6 16  1  0  0  0  0
  7  9  2  0  0  0  0
  7 17  1  0  0  0  0
  8 22  1  0  0  0  0
  9 21  1  0  0  0  0
 10 13  1  0  0  0  0
 10 20  2  0  0  0  0
 11 14  2  0  0  0  0
 11 20  1  0  0  0  0
 12 24  2  0  0  0  0
 13 23  2  0  0  0  0
 14 23  1  0  0  0  0
 15 17  2  0  0  0  0
 15 18  1  0  0  0  0
 16 17  1  0  0  0  0
 18 21  2  0  0  0  0
 18 25  1  0  0  0  0
 19 22  2  0  0  0  0
 19 24  1  0  0  0  0
 19 26  1  0  0  0  0
 20 30  1  0  0  0  0
 21 31  1  0  0  0  0
 22 32  1  0  0  0  0
 23 38  1  0  0  0  0
 24 39  1  0  0  0  0
 25 33  1  0  0  0  0
 25 36  2  0  0  0  0
 26 35  1  0  0  0  0
 26 37  2  0  0  0  0
 27 34  1  0  0  0  0
 28 38  1  0  0  0  0
 29 39  1  0  0  0  0
 30 33  1  0  0  0  0
 31 34  1  0  0  0  0
 32 34  1  0  0  0  0
  1 40  1  0  0  0  0
  2 41  1  0  0  0  0
  3 42  1  0  0  0  0
  4 43  1  0  0  0  0
  5 44  1  0  0  0  0
  6 45  1  0  0  0  0
  7 46  1  0  0  0  0
  8 47  1  0  0  0  0
  9 48  1  0  0  0  0
 10 49  1  0  0  0  0
 11 50  1  0  0  0  0
 12 51  1  0  0  0  0
 13 52  1  0  0  0  0
 14 53  1  0  0  0  0
 15 54  1  0  0  0  0
 27 55  1  0  0  0  0
 27 56  1  0  0  0  0
 27 57  1  0  0  0  0
 28 58  1  0  0  0  0
 28 59  1  0  0  0  0
 28 60  1  0  0  0  0
 29 61  1  0  0  0  0
 29 62  1  0  0  0  0
 29 63  1  0  0  0  0
 30 64  1  0  0  0  0
 30 65  1  0  0  0  0
 31 66  1  0  0  0  0
 31 67  1  0  0  0  0
 32 68  1  0  0  0  0
 32 69  1  0  0  0  0
 33 70  1  0  0  0  0
 34 71  1  0  0  0  0
M  CHG  2  34   1  35  -1
M  END
$$$$
