@<TRIPOS>MOLECULE
AVX17286_1
   33    36     0     0     0
SMALL
NO_CHARGES

@<TRIPOS>ATOM
      1 C1         -0.1948   -1.2188   -1.7733 C.ar      1 MOL         0.0000
      2 C2          0.0489   -1.0083   -0.4029 C.ar      1 MOL         0.0000
      3 C3         -0.1402   -2.5032   -2.3253 C.ar      1 MOL         0.0000
      4 C4          1.6158   -7.6236   -3.1648 C.ar      1 MOL         0.0000
      5 C5          0.3519   -2.0775    0.4422 C.ar      1 MOL         0.0000
      6 C6          1.8280   -9.0000   -3.2743 C.ar      1 MOL         0.0000
      7 C7          0.1604   -3.5565   -1.4826 C.ar      1 MOL         0.0000
      8 C8          0.3289   -7.1155   -2.9147 C.ar      1 MOL         0.0000
      9 C9         -0.7607   -7.9779   -2.7712 C.ar      1 MOL         0.0000
     10 C10         0.4008   -3.3366   -0.1231 C.ar      1 MOL         0.0000
     11 C11         0.7354   -9.8299   -3.1286 C.ar      1 MOL         0.0000
     12 C12        -0.5243   -9.3325   -2.8837 C.ar      1 MOL         0.0000
     13 C13         0.3033   -4.9945   -1.6833 C.2       1 MOL         0.0000
     14 C14         0.6440   -5.6207   -0.3620 C.2       1 MOL         0.0000
     15 C15         0.1687   -5.6938   -2.8117 C.2       1 MOL         0.0000
     16 C16        -2.1222   -7.4807   -2.5055 C.2       1 MOL         0.0000
     17 C17        -0.6428  -11.4910   -2.9767 C.3       1 MOL         0.0000
     18 N1          0.6826   -4.5427    0.5281 N.am      1 MOL         0.0000
     19 O1         -2.4988   -7.3336   -1.2836 O.co2     1 MOL         0.0000
     20 O2          0.8372   -6.8024   -0.1432 O.2       1 MOL         0.0000
     21 O3         -2.8877   -7.2112   -3.5044 O.co2     1 MOL         0.0000
     22 O4          0.7493  -11.1886   -3.2020 O.3       1 MOL         0.0000
     23 O5         -1.4566  -10.3177   -2.7734 O.3       1 MOL         0.0000
     24 H1         -0.4282   -0.3694   -2.4102 H         1 MOL         0.0000
     25 H2          0.0012    0.0003   -0.0007 H         1 MOL         0.0000
     26 H3         -0.3291   -2.6545   -3.3823 H         1 MOL         0.0000
     27 H4          2.4643   -6.9516   -3.2755 H         1 MOL         0.0000
     28 H5          0.5403   -1.9161    1.4974 H         1 MOL         0.0000
     29 H6          2.8189   -9.3951   -3.4675 H         1 MOL         0.0000
     30 H7         -0.0527   -5.1412   -3.7249 H         1 MOL         0.0000
     31 H8         -1.0277  -12.0398   -3.8440 H         1 MOL         0.0000
     32 H9         -0.7232  -12.1314   -2.0907 H         1 MOL         0.0000
     33 H10         0.8882   -4.6244    1.5170 H         1 MOL         0.0000
@<TRIPOS>BOND
     1    1    2 ar
     2    1    3 ar
     3    2    5 ar
     4    3    7 ar
     5    4    6 ar
     6    4    8 ar
     7    5   10 ar
     8    6   11 ar
     9    7   10 ar
    10    7   13 1
    11    8    9 ar
    12    8   15 1
    13    9   12 ar
    14    9   16 1
    15   10   18 1
    16   11   12 ar
    17   11   22 1
    18   12   23 1
    19   13   14 1
    20   13   15 2
    21   14   18 am
    22   14   20 2
    23   16   19 1
    24   16   21 2
    25   17   22 1
    26   17   23 1
    27    1   24 1
    28    2   25 1
    29    3   26 1
    30    4   27 1
    31    5   28 1
    32    6   29 1
    33   15   30 1
    34   17   31 1
    35   17   32 1
    36   18   33 1
