AVX17482_0
  -OEChem-04011314533D

 31 33  0     1  0  0  0  0  0999 V2000
    2.6250   -0.3239    0.6896 C   0  0  0  0  0  0  0  0  0  0  0  0
    1.9389   -1.5361    0.8582 C   0  0  0  0  0  0  0  0  0  0  0  0
    1.9344    0.8425    0.3570 C   0  0  0  0  0  0  0  0  0  0  0  0
    0.5528   -1.5992    0.6959 C   0  0  0  0  0  0  0  0  0  0  0  0
   -6.1556   -0.7739   -0.3797 C   0  0  0  0  0  0  0  0  0  0  0  0
    0.5615    0.7680    0.1856 C   0  0  0  0  0  0  0  0  0  0  0  0
   -0.1274   -0.4411    0.3516 C   0  0  0  0  0  0  0  0  0  0  0  0
   -5.6993   -0.5220   -1.6566 C   0  0  0  0  0  0  0  0  0  0  0  0
   -3.7925   -1.0832   -0.7298 C   0  0  0  0  0  0  0  0  0  0  0  0
   -6.6300   -0.0716   -2.7873 C   0  0  0  0  0  0  0  0  0  0  0  0
   -0.3792    1.8896   -0.1389 C   0  0  0  0  0  0  0  0  0  0  0  0
   -1.6076   -0.2363    0.1627 C   0  0  1  0  0  0  0  0  0  0  0  0
   -1.6244    1.1117   -0.5996 C   0  0  2  0  0  0  0  0  0  0  0  0
   -2.3252   -1.3721   -0.5528 C   0  0  0  0  0  0  0  0  0  0  0  0
   -4.3445   -0.6985   -1.8592 N   0  0  0  0  0  0  0  0  0  0  0  0
   -6.0920    0.1266   -3.9093 O   0  5  0  0  0  0  0  0  0  0  0  0
   -7.8476    0.0593   -2.4910 O   0  0  0  0  0  0  0  0  0  0  0  0
   -1.5488    0.8969   -2.0093 O   0  0  0  0  0  0  0  0  0  0  0  0
   -4.8440   -1.2536    0.6157 S   0  0  0  0  0  0  0  0  0  0  0  0
    3.7026   -0.2933    0.8258 H   0  0  0  0  0  0  0  0  0  0  0  0
    2.4917   -2.4329    1.1245 H   0  0  0  0  0  0  0  0  0  0  0  0
    2.4647    1.7812    0.2371 H   0  0  0  0  0  0  0  0  0  0  0  0
    0.0305   -2.5385    0.8442 H   0  0  0  0  0  0  0  0  0  0  0  0
   -7.1623   -0.7031    0.0077 H   0  0  0  0  0  0  0  0  0  0  0  0
   -0.5847    2.4633    0.7706 H   0  0  0  0  0  0  0  0  0  0  0  0
    0.0224    2.5380   -0.9232 H   0  0  0  0  0  0  0  0  0  0  0  0
   -2.0500   -0.0890    1.1544 H   0  0  0  0  0  0  0  0  0  0  0  0
   -2.5434    1.6751   -0.4066 H   0  0  0  0  0  0  0  0  0  0  0  0
   -2.1970   -2.3035    0.0113 H   0  0  0  0  0  0  0  0  0  0  0  0
   -1.8613   -1.5439   -1.5314 H   0  0  0  0  0  0  0  0  0  0  0  0
   -1.5145    1.7746   -2.4186 H   0  0  0  0  0  0  0  0  0  0  0  0
  1  2  2  0  0  0  0
  1  3  1  0  0  0  0
  2  4  1  0  0  0  0
  3  6  2  0  0  0  0
  4  7  2  0  0  0  0
  5  8  2  0  0  0  0
  5 19  1  0  0  0  0
  6  7  1  0  0  0  0
  6 11  1  0  0  0  0
  7 12  1  0  0  0  0
  8 10  1  0  0  0  0
  8 15  1  0  0  0  0
  9 14  1  0  0  0  0
  9 15  2  0  0  0  0
  9 19  1  0  0  0  0
 10 16  1  0  0  0  0
 10 17  2  0  0  0  0
 11 13  1  0  0  0  0
 12 13  1  0  0  0  0
 12 14  1  0  0  0  0
 13 18  1  0  0  0  0
  1 20  1  0  0  0  0
  2 21  1  0  0  0  0
  3 22  1  0  0  0  0
  4 23  1  0  0  0  0
  5 24  1  0  0  0  0
 11 25  1  0  0  0  0
 11 26  1  0  0  0  0
 12 27  1  0  0  0  0
 13 28  1  0  0  0  0
 14 29  1  0  0  0  0
 14 30  1  0  0  0  0
 18 31  1  0  0  0  0
M  CHG  1  16  -1
M  END
$$$$
