AVX17268_1
  -OEChem-03221316053D

 32 34  0     1  0  0  0  0  0999 V2000
    3.7957    9.5873   -0.8760 C   0  0  0  0  0  0  0  0  0  0  0  0
    1.7456    1.2722   -0.0364 C   0  0  0  0  0  0  0  0  0  0  0  0
    2.5475    9.3496   -1.4514 C   0  0  0  0  0  0  0  0  0  0  0  0
    0.3605    1.0247   -0.0319 C   0  0  0  0  0  0  0  0  0  0  0  0
    4.5840    8.5170   -0.4532 C   0  0  0  0  0  0  0  0  0  0  0  0
    2.2411    2.5795   -0.0765 C   0  0  0  0  0  0  0  0  0  0  0  0
    2.0875    8.0417   -1.6039 C   0  0  0  0  0  0  0  0  0  0  0  0
   -0.5529    2.0796   -0.0667 C   0  0  0  0  0  0  0  0  0  0  0  0
    4.1240    7.2090   -0.6057 C   0  0  0  0  0  0  0  0  0  0  0  0
    1.3310    3.6196   -0.1151 C   0  0  0  0  0  0  0  0  0  0  0  0
    2.8758    6.9713   -1.1811 C   0  0  0  0  0  0  0  0  0  0  0  0
   -0.0377    3.3597   -0.1063 C   0  0  0  0  0  0  0  0  0  0  0  0
    0.1201    5.6550   -0.1898 C   0  0  0  0  0  0  0  0  0  0  0  0
    4.9732    6.0929   -0.1514 C   0  0  0  0  0  0  0  0  0  0  0  0
    1.5589    5.1040   -0.1489 C   0  0  2  0  0  0  0  0  0  0  0  0
    2.3543    5.5685   -1.3569 C   0  0  0  0  0  0  0  0  0  0  0  0
   -0.7446    4.5559   -0.1491 N   0  0  0  0  0  0  0  0  0  0  0  0
    4.8491    5.6759    1.0596 O   0  5  0  0  0  0  0  0  0  0  0  0
   -0.1888    6.8357   -0.2463 O   0  0  0  0  0  0  0  0  0  0  0  0
    5.8088    5.5751   -0.9817 O   0  0  0  0  0  0  0  0  0  0  0  0
    4.1536   10.6056   -0.7578 H   0  0  0  0  0  0  0  0  0  0  0  0
    2.4377    0.4346   -0.0071 H   0  0  0  0  0  0  0  0  0  0  0  0
    1.9337   10.1829   -1.7806 H   0  0  0  0  0  0  0  0  0  0  0  0
    0.0006   -0.0002    0.0002 H   0  0  0  0  0  0  0  0  0  0  0  0
    5.5556    8.7138   -0.0074 H   0  0  0  0  0  0  0  0  0  0  0  0
    3.3096    2.7642   -0.0749 H   0  0  0  0  0  0  0  0  0  0  0  0
    1.1126    7.8668   -2.0512 H   0  0  0  0  0  0  0  0  0  0  0  0
   -1.6205    1.8925   -0.0630 H   0  0  0  0  0  0  0  0  0  0  0  0
    2.0236    5.4313    0.7878 H   0  0  0  0  0  0  0  0  0  0  0  0
    1.7278    5.5188   -2.2566 H   0  0  0  0  0  0  0  0  0  0  0  0
    3.1932    4.8839   -1.5359 H   0  0  0  0  0  0  0  0  0  0  0  0
   -1.7563    4.6105   -0.1583 H   0  0  0  0  0  0  0  0  0  0  0  0
  1  3  1  0  0  0  0
  1  5  2  0  0  0  0
  2  4  2  0  0  0  0
  2  6  1  0  0  0  0
  3  7  2  0  0  0  0
  4  8  1  0  0  0  0
  5  9  1  0  0  0  0
  6 10  2  0  0  0  0
  7 11  1  0  0  0  0
  8 12  2  0  0  0  0
  9 11  2  0  0  0  0
  9 14  1  0  0  0  0
 10 12  1  0  0  0  0
 10 15  1  0  0  0  0
 11 16  1  0  0  0  0
 12 17  1  0  0  0  0
 13 15  1  0  0  0  0
 13 17  1  0  0  0  0
 13 19  2  0  0  0  0
 14 18  1  0  0  0  0
 14 20  2  0  0  0  0
 15 16  1  0  0  0  0
  1 21  1  0  0  0  0
  2 22  1  0  0  0  0
  3 23  1  0  0  0  0
  4 24  1  0  0  0  0
  5 25  1  0  0  0  0
  6 26  1  0  0  0  0
  7 27  1  0  0  0  0
  8 28  1  0  0  0  0
 15 29  1  0  0  0  0
 16 30  1  0  0  0  0
 16 31  1  0  0  0  0
 17 32  1  0  0  0  0
M  CHG  1  18  -1
M  END
$$$$
