@<TRIPOS>MOLECULE
AVX17628_0
   56    59     0     0     0
SMALL
NO_CHARGES

@<TRIPOS>ATOM
      1 C1         -4.5246   -8.7797    3.9966 C.ar      1 MOL         0.0000
      2 C2         -3.8644   -2.0415    4.5000 C.ar      1 MOL         0.0000
      3 C3         -3.3308   -8.4783    3.3411 C.ar      1 MOL         0.0000
      4 C4         -5.7463   -8.4833    3.3921 C.ar      1 MOL         0.0000
      5 C5         -5.0294   -2.4741    3.8664 C.ar      1 MOL         0.0000
      6 C6         -2.6614   -1.9998    3.7951 C.ar      1 MOL         0.0000
      7 C7         -3.3586   -7.8805    2.0812 C.ar      1 MOL         0.0000
      8 C8         -5.7741   -7.8854    2.1321 C.ar      1 MOL         0.0000
      9 C9         -4.9913   -2.8651    2.5280 C.ar      1 MOL         0.0000
     10 C10        -2.6234   -2.3908    2.4567 C.ar      1 MOL         0.0000
     11 C11        -3.5763    0.5873   -4.2587 C.ar      1 MOL         0.0000
     12 C12        -3.9885    0.4081   -5.5814 C.ar      1 MOL         0.0000
     13 C13        -1.3968   -0.3738   -4.7627 C.ar      1 MOL         0.0000
     14 C14        -4.5803   -7.5840    1.4767 C.ar      1 MOL         0.0000
     15 C15        -3.7884   -2.8234    1.8231 C.ar      1 MOL         0.0000
     16 C16        -2.2878    0.1986   -3.8517 C.ar      1 MOL         0.0000
     17 C17        -3.0896   -0.1594   -6.4609 C.ar      1 MOL         0.0000
     18 C18        -1.8284   -0.5397   -6.0626 C.ar      1 MOL         0.0000
     19 C19        -0.0426   -0.7881   -4.3620 C.2       1 MOL         0.0000
     20 C20        -3.4526   -4.7353    0.2270 C.2       1 MOL         0.0000
     21 C21        -3.0267   -1.3167   -1.0266 C.2       1 MOL         0.0000
     22 C22        -2.0503   -0.9902   -8.1672 C.3       1 MOL         0.0000
     23 C23        -4.6109   -6.9403    0.1206 C.3       1 MOL         0.0000
     24 C24        -1.8931    0.4108   -2.4256 C.3       1 MOL         0.0000
     25 C25        -3.7464   -3.2470    0.3733 C.3       1 MOL         0.0000
     26 N1         -4.6122   -5.4977    0.2067 N.am      1 MOL         0.0000
     27 N2         -1.8958   -0.8156   -1.6718 N.am      1 MOL         0.0000
     28 N3         -2.7504   -2.5151   -0.3733 N.am      1 MOL         0.0000
     29 O1          0.9192    0.0633   -4.4555 O.co2     1 MOL         0.0000
     30 O2          0.1365   -1.9886   -3.9314 O.co2     1 MOL         0.0000
     31 O3         -2.3104   -5.1873    0.1752 O.2       1 MOL         0.0000
     32 O4         -4.1286   -0.7696   -1.0345 O.2       1 MOL         0.0000
     33 O5         -3.3123   -0.4092   -7.7799 O.3       1 MOL         0.0000
     34 O6         -1.1038   -1.0756   -7.0823 O.3       1 MOL         0.0000
     35 H1         -4.5028   -9.2464    4.9771 H         1 MOL         0.0000
     36 H2         -3.8945   -1.7358    5.5417 H         1 MOL         0.0000
     37 H3         -2.3795   -8.7101    3.8112 H         1 MOL         0.0000
     38 H4         -6.6759   -8.7187    3.9016 H         1 MOL         0.0000
     39 H5         -5.9663   -2.5056    4.4148 H         1 MOL         0.0000
     40 H6         -1.7545   -1.6620    4.2877 H         1 MOL         0.0000
     41 H7         -2.4235   -7.6491    1.5780 H         1 MOL         0.0000
     42 H8         -6.7305   -7.6580    1.6689 H         1 MOL         0.0000
     43 H9         -5.9039   -3.2009    2.0426 H         1 MOL         0.0000
     44 H10        -1.6816   -2.3551    1.9155 H         1 MOL         0.0000
     45 H11        -4.2638    1.0325   -3.5434 H         1 MOL         0.0000
     46 H12        -4.9810    0.7064   -5.8993 H         1 MOL         0.0000
     47 H13        -2.2327   -1.9995   -8.5538 H         1 MOL         0.0000
     48 H14        -1.6138   -0.3805   -8.9666 H         1 MOL         0.0000
     49 H15        -3.7390   -7.2422   -0.4699 H         1 MOL         0.0000
     50 H16        -5.5027   -7.2432   -0.4381 H         1 MOL         0.0000
     51 H17        -0.8854    0.8410   -2.3570 H         1 MOL         0.0000
     52 H18        -2.5739    1.1091   -1.9223 H         1 MOL         0.0000
     53 H19        -4.7002   -3.0235   -0.1197 H         1 MOL         0.0000
     54 H20        -5.5142   -5.0333    0.2556 H         1 MOL         0.0000
     55 H21        -1.0286   -1.3440   -1.6061 H         1 MOL         0.0000
     56 H22        -1.8221   -2.9166   -0.4602 H         1 MOL         0.0000
@<TRIPOS>BOND
     1    1    3 ar
     2    1    4 ar
     3    2    5 ar
     4    2    6 ar
     5    3    7 ar
     6    4    8 ar
     7    5    9 ar
     8    6   10 ar
     9    7   14 ar
    10    8   14 ar
    11    9   15 ar
    12   10   15 ar
    13   11   12 ar
    14   11   16 ar
    15   12   17 ar
    16   13   16 ar
    17   13   18 ar
    18   13   19 1
    19   14   23 1
    20   15   25 1
    21   16   24 1
    22   17   18 ar
    23   17   33 1
    24   18   34 1
    25   19   29 1
    26   19   30 2
    27   20   25 1
    28   20   26 am
    29   20   31 2
    30   21   27 am
    31   21   28 am
    32   21   32 2
    33   22   33 1
    34   22   34 1
    35   23   26 1
    36   24   27 1
    37   25   28 1
    38    1   35 1
    39    2   36 1
    40    3   37 1
    41    4   38 1
    42    5   39 1
    43    6   40 1
    44    7   41 1
    45    8   42 1
    46    9   43 1
    47   10   44 1
    48   11   45 1
    49   12   46 1
    50   22   47 1
    51   22   48 1
    52   23   49 1
    53   23   50 1
    54   24   51 1
    55   24   52 1
    56   25   53 1
    57   26   54 1
    58   27   55 1
    59   28   56 1
