AVX17377_0
  -OEChem-04011314533D

 35 38  0     0  0  0  0  0  0999 V2000
    5.4219    5.1226   -2.0884 C   0  0  0  0  0  0  0  0  0  0  0  0
    4.4712    6.1126   -2.3929 C   0  0  0  0  0  0  0  0  0  0  0  0
    5.0209    3.8334   -1.7289 C   0  0  0  0  0  0  0  0  0  0  0  0
   -0.0955    5.4503    0.2788 C   0  0  0  0  0  0  0  0  0  0  0  0
    3.1040    5.8300   -2.3433 C   0  0  0  0  0  0  0  0  0  0  0  0
   -0.8512    5.5574    1.4488 C   0  0  0  0  0  0  0  0  0  0  0  0
   -1.9295    4.3176   -0.8532 C   0  0  0  0  0  0  0  0  0  0  0  0
    3.6657    3.5634   -1.6823 C   0  0  0  0  0  0  0  0  0  0  0  0
   -0.6316    4.8341   -0.8656 C   0  0  0  0  0  0  0  0  0  0  0  0
    2.7261    4.5481   -1.9852 C   0  0  0  0  0  0  0  0  0  0  0  0
   -2.1299    5.0393    1.4347 C   0  0  0  0  0  0  0  0  0  0  0  0
   -2.6547    4.4361    0.3146 C   0  0  0  0  0  0  0  0  0  0  0  0
    1.4901    2.6615   -1.4746 C   0  0  0  0  0  0  0  0  0  0  0  0
   -2.5140    3.6689   -2.0379 C   0  0  0  0  0  0  0  0  0  0  0  0
    2.9684    2.2880   -1.3335 C   0  0  0  0  0  0  0  0  0  0  0  0
   -4.1443    4.3889    1.8832 C   0  0  0  0  0  0  0  0  0  0  0  0
    0.2198    4.7433   -2.0990 C   0  0  0  0  0  0  0  0  0  0  0  0
    1.4392    4.0084   -1.8607 N   0  0  0  0  0  0  0  0  0  0  0  0
   -3.1604    4.3923   -2.8852 O   0  5  0  0  0  0  0  0  0  0  0  0
    0.5588    1.8949   -1.2778 O   0  0  0  0  0  0  0  0  0  0  0  0
   -2.3603    2.3991   -2.1886 O   0  0  0  0  0  0  0  0  0  0  0  0
   -3.0082    5.0522    2.4742 O   0  0  0  0  0  0  0  0  0  0  0  0
   -3.9270    3.9957    0.5126 O   0  0  0  0  0  0  0  0  0  0  0  0
    6.4803    5.3647   -2.1341 H   0  0  0  0  0  0  0  0  0  0  0  0
    4.8064    7.1086   -2.6699 H   0  0  0  0  0  0  0  0  0  0  0  0
    5.7554    3.0711   -1.4939 H   0  0  0  0  0  0  0  0  0  0  0  0
    0.9156    5.8502    0.2607 H   0  0  0  0  0  0  0  0  0  0  0  0
    2.3778    6.5992   -2.5802 H   0  0  0  0  0  0  0  0  0  0  0  0
   -0.4417    6.0318    2.3333 H   0  0  0  0  0  0  0  0  0  0  0  0
    3.2132    1.4915   -2.0408 H   0  0  0  0  0  0  0  0  0  0  0  0
    3.1725    1.9906   -0.3016 H   0  0  0  0  0  0  0  0  0  0  0  0
   -4.3737    3.4938    2.4727 H   0  0  0  0  0  0  0  0  0  0  0  0
   -5.0053    5.0661    1.9216 H   0  0  0  0  0  0  0  0  0  0  0  0
   -0.3237    4.2419   -2.9072 H   0  0  0  0  0  0  0  0  0  0  0  0
    0.4946    5.7396   -2.4610 H   0  0  0  0  0  0  0  0  0  0  0  0
  1  2  1  0  0  0  0
  1  3  2  0  0  0  0
  2  5  2  0  0  0  0
  3  8  1  0  0  0  0
  4  6  2  0  0  0  0
  4  9  1  0  0  0  0
  5 10  1  0  0  0  0
  6 11  1  0  0  0  0
  7  9  2  0  0  0  0
  7 12  1  0  0  0  0
  7 14  1  0  0  0  0
  8 10  2  0  0  0  0
  8 15  1  0  0  0  0
  9 17  1  0  0  0  0
 10 18  1  0  0  0  0
 11 12  2  0  0  0  0
 11 22  1  0  0  0  0
 12 23  1  0  0  0  0
 13 15  1  0  0  0  0
 13 18  1  0  0  0  0
 13 20  2  0  0  0  0
 14 19  1  0  0  0  0
 14 21  2  0  0  0  0
 16 22  1  0  0  0  0
 16 23  1  0  0  0  0
 17 18  1  0  0  0  0
  1 24  1  0  0  0  0
  2 25  1  0  0  0  0
  3 26  1  0  0  0  0
  4 27  1  0  0  0  0
  5 28  1  0  0  0  0
  6 29  1  0  0  0  0
 15 30  1  0  0  0  0
 15 31  1  0  0  0  0
 16 32  1  0  0  0  0
 16 33  1  0  0  0  0
 17 34  1  0  0  0  0
 17 35  1  0  0  0  0
M  CHG  1  19  -1
M  END
$$$$
