@<TRIPOS>MOLECULE
AVX17379_0
   32    33     0     0     0
SMALL
NO_CHARGES

@<TRIPOS>ATOM
      1 C1          1.8851   -1.0363   -0.1124 C.ar      1 MOL         0.0000
      2 C2          0.8066   -0.4630    0.5610 C.ar      1 MOL         0.0000
      3 C3          2.9210   -1.6309    0.6081 C.ar      1 MOL         0.0000
      4 C4          0.7638   -0.4841    1.9551 C.ar      1 MOL         0.0000
      5 C5          1.1171   -1.4221    6.1263 C.2       1 MOL         0.0000
      6 C6          2.8783   -1.6520    2.0022 C.ar      1 MOL         0.0000
      7 C7          1.7997   -1.0786    2.6757 C.ar      1 MOL         0.0000
      8 C8          2.3218   -0.6993    6.0371 C.2       1 MOL         0.0000
      9 C9          0.7620   -1.6600    4.8210 C.2       1 MOL         0.0000
     10 C10        -0.4033   -2.3698    4.2577 C.3       1 MOL         0.0000
     11 C11         4.0043   -2.2967    2.7449 C.3       1 MOL         0.0000
     12 C12         3.1418   -0.1830    7.1459 C.3       1 MOL         0.0000
     13 N1          2.7064   -0.4919    4.7750 N.2       1 MOL         0.0000
     14 N2          1.7378   -1.0879    4.0590 N.pl3     1 MOL         0.0000
     15 N3          5.1063   -1.3536    3.0751 N.4       1 MOL         0.0000
     16 O1          4.3081   -0.9912    7.3122 O.3       1 MOL         0.0000
     17 H1          1.9182   -1.0203   -1.1979 H         1 MOL         0.0000
     18 H2          0.0001    0.0001   -0.0000 H         1 MOL         0.0000
     19 H3          3.7569   -2.0744    0.0736 H         1 MOL         0.0000
     20 H4         -0.0838   -0.0324    2.4647 H         1 MOL         0.0000
     21 H5          0.5804   -1.7275    7.0131 H         1 MOL         0.0000
     22 H6         -1.2457   -1.6792    4.0893 H         1 MOL         0.0000
     23 H7         -0.1675   -2.8523    3.2938 H         1 MOL         0.0000
     24 H8         -0.7582   -3.1755    4.9230 H         1 MOL         0.0000
     25 H9          3.6647   -2.7231    3.6972 H         1 MOL         0.0000
     26 H10         4.4553   -3.1097    2.1622 H         1 MOL         0.0000
     27 H11         3.4739    0.8574    6.9732 H         1 MOL         0.0000
     28 H12         2.5907   -0.1804    8.1043 H         1 MOL         0.0000
     29 H13         5.5461   -1.6065    3.9647 H         1 MOL         0.0000
     30 H14         4.7519   -0.3959    3.1550 H         1 MOL         0.0000
     31 H15         5.8266   -1.3680    2.3470 H         1 MOL         0.0000
     32 H16         4.8040   -0.6058    8.0498 H         1 MOL         0.0000
@<TRIPOS>BOND
     1    1    2 ar
     2    1    3 ar
     3    2    4 ar
     4    3    6 ar
     5    4    7 ar
     6    5    8 1
     7    5    9 2
     8    6    7 ar
     9    6   11 1
    10    7   14 1
    11    8   12 1
    12    8   13 2
    13    9   10 1
    14    9   14 1
    15   11   15 1
    16   12   16 1
    17   13   14 1
    18    1   17 1
    19    2   18 1
    20    3   19 1
    21    4   20 1
    22    5   21 1
    23   10   22 1
    24   10   23 1
    25   10   24 1
    26   11   25 1
    27   11   26 1
    28   12   27 1
    29   12   28 1
    30   15   29 1
    31   15   30 1
    32   15   31 1
    33   16   32 1
