@<TRIPOS>MOLECULE
AVX17231_0
   27    28     0     0     0
SMALL
NO_CHARGES

@<TRIPOS>ATOM
      1 C1          3.2875   -1.4549    1.7936 C.ar      1 MOL         0.0000
      2 C2          2.1640   -1.4359    0.9726 C.ar      1 MOL         0.0000
      3 C3          2.0294   -2.6494    3.4405 C.ar      1 MOL         0.0000
      4 C4          3.2241   -2.0670    3.0417 C.ar      1 MOL         0.0000
      5 C5          0.9962   -2.0343    1.4237 C.ar      1 MOL         0.0000
      6 C6         -0.7487   -0.7573    0.2490 C.3       1 MOL         0.0000
      7 C7         -1.1193   -3.1528    0.7691 C.3       1 MOL         0.0000
      8 C8         -1.6486   -0.9498   -0.9663 C.3       1 MOL         0.0000
      9 C9         -2.0000   -3.2173   -0.4738 C.3       1 MOL         0.0000
     10 N1          0.9627   -2.6167    2.6300 N.ar      1 MOL         0.0000
     11 N2         -0.1641   -2.0466    0.6428 N.pl3     1 MOL         0.0000
     12 N3          4.3583   -2.0966    3.8922 N.pl3     1 MOL         0.0000
     13 O1          5.4259   -1.5613    3.5042 O.2       1 MOL         0.0000
     14 O2          4.2665   -2.6569    5.0123 O.2       1 MOL         0.0000
     15 O3         -2.6269   -1.9569   -0.7084 O.3       1 MOL         0.0000
     16 H1          4.2071   -0.9888    1.4487 H         1 MOL         0.0000
     17 H2          2.2111   -0.9589   -0.0016 H         1 MOL         0.0000
     18 H3          1.8784   -3.1483    4.3885 H         1 MOL         0.0000
     19 H4          0.0375   -0.0314    0.0104 H         1 MOL         0.0000
     20 H5         -1.3406   -0.3620    1.0845 H         1 MOL         0.0000
     21 H6         -1.7466   -2.9870    1.6543 H         1 MOL         0.0000
     22 H7         -0.5946   -4.1073    0.8947 H         1 MOL         0.0000
     23 H8         -2.1760   -0.0175   -1.1916 H         1 MOL         0.0000
     24 H9         -1.0676   -1.2255   -1.8547 H         1 MOL         0.0000
     25 H10        -1.4209   -3.5063   -1.3592 H         1 MOL         0.0000
     26 H11        -2.7874   -3.9650   -0.3352 H         1 MOL         0.0000
     27 H12         0.0935   -3.0497    2.9397 H         1 MOL         0.0000
@<TRIPOS>BOND
     1    1    2 ar
     2    1    4 ar
     3    2    5 ar
     4    3    4 ar
     5    3   10 ar
     6    4   12 1
     7    5   10 ar
     8    5   11 1
     9    6    8 1
    10    6   11 1
    11    7    9 1
    12    7   11 1
    13    8   15 1
    14    9   15 1
    15   12   13 2
    16   12   14 2
    17    1   16 1
    18    2   17 1
    19    3   18 1
    20    6   19 1
    21    6   20 1
    22    7   21 1
    23    7   22 1
    24    8   23 1
    25    8   24 1
    26    9   25 1
    27    9   26 1
    28   10   27 1
