@<TRIPOS>MOLECULE
AVX17369_1
   35    37     0     0     0
SMALL
NO_CHARGES

@<TRIPOS>ATOM
      1 C1         -1.9204    0.9555    0.2371 C.ar      1 MOL         0.0000
      2 C2         -1.0710   -0.1533    0.1009 C.ar      1 MOL         0.0000
      3 C3         -3.6605   -7.2457   -1.1555 C.ar      1 MOL         0.0000
      4 C4         -5.0095   -7.6005   -1.1620 C.ar      1 MOL         0.0000
      5 C5         -3.3002    0.7836    0.3651 C.ar      1 MOL         0.0000
      6 C6         -1.5898   -1.4496    0.0889 C.ar      1 MOL         0.0000
      7 C7         -3.2933   -5.9000   -1.1662 C.ar      1 MOL         0.0000
      8 C8         -5.6239   -5.2641   -1.1899 C.ar      1 MOL         0.0000
      9 C9         -5.9912   -6.6098   -1.1792 C.ar      1 MOL         0.0000
     10 C10        -3.8051   -0.5062    0.3639 C.ar      1 MOL         0.0000
     11 C11        -2.9600   -1.6126    0.2208 C.ar      1 MOL         0.0000
     12 C12        -4.2750   -4.9093   -1.1834 C.ar      1 MOL         0.0000
     13 C13        -7.4146   -6.9836   -1.1863 C.2       1 MOL         0.0000
     14 C14        -5.2395   -0.9289    0.4558 C.3       1 MOL         0.0000
     15 C15        -3.7410   -2.8990    0.2166 C.3       1 MOL         0.0000
     16 C16        -5.0962   -2.4238    0.7918 C.3       1 MOL         0.0000
     17 C17        -3.8789   -3.4574   -1.1952 C.3       1 MOL         0.0000
     18 O1         -8.3009   -6.0492   -1.2019 O.co2     1 MOL         0.0000
     19 O2         -7.7275   -8.2329   -1.1763 O.co2     1 MOL         0.0000
     20 O3         -5.0816   -2.5609    2.2158 O.3       1 MOL         0.0000
     21 H1         -1.4991    1.9572    0.2394 H         1 MOL         0.0000
     22 H2         -0.0000   -0.0000   -0.0004 H         1 MOL         0.0000
     23 H3         -2.8964   -8.0173   -1.1419 H         1 MOL         0.0000
     24 H4         -5.2848   -8.6520   -1.1531 H         1 MOL         0.0000
     25 H5         -3.9556    1.6424    0.4627 H         1 MOL         0.0000
     26 H6         -0.9316   -2.3045   -0.0232 H         1 MOL         0.0000
     27 H7         -2.2399   -5.6328   -1.1609 H         1 MOL         0.0000
     28 H8         -6.3882   -4.4905   -1.2032 H         1 MOL         0.0000
     29 H9         -5.7728   -0.3755    1.2343 H         1 MOL         0.0000
     30 H10        -5.7207   -0.7871   -0.5174 H         1 MOL         0.0000
     31 H11        -3.2643   -3.6324    0.8769 H         1 MOL         0.0000
     32 H12        -5.9502   -3.0027    0.4250 H         1 MOL         0.0000
     33 H13        -2.9319   -3.3348   -1.7323 H         1 MOL         0.0000
     34 H14        -4.6222   -2.8738   -1.7497 H         1 MOL         0.0000
     35 H15        -4.9908   -3.5079    2.3957 H         1 MOL         0.0000
@<TRIPOS>BOND
     1    1    2 ar
     2    1    5 ar
     3    2    6 ar
     4    3    4 ar
     5    3    7 ar
     6    4    9 ar
     7    5   10 ar
     8    6   11 ar
     9    7   12 ar
    10    8    9 ar
    11    8   12 ar
    12    9   13 1
    13   10   11 ar
    14   10   14 1
    15   11   15 1
    16   12   17 1
    17   13   18 1
    18   13   19 2
    19   14   16 1
    20   15   16 1
    21   15   17 1
    22   16   20 1
    23    1   21 1
    24    2   22 1
    25    3   23 1
    26    4   24 1
    27    5   25 1
    28    6   26 1
    29    7   27 1
    30    8   28 1
    31   14   29 1
    32   14   30 1
    33   15   31 1
    34   16   32 1
    35   17   33 1
    36   17   34 1
    37   20   35 1
