AVX17558_1
  -OEChem-04011314543D

 53 56  0     1  0  0  0  0  0999 V2000
    1.8121    1.8090   -1.1916 C   0  0  0  0  0  0  0  0  0  0  0  0
    1.2445    1.0062   -2.1923 C   0  0  0  0  0  0  0  0  0  0  0  0
    1.4139    1.6723    0.1391 C   0  0  0  0  0  0  0  0  0  0  0  0
    0.2716    0.0548   -1.8762 C   0  0  0  0  0  0  0  0  0  0  0  0
   -3.5248   -2.9183    0.0661 C   0  0  0  0  0  0  0  0  0  0  0  0
   -4.5129   -3.6969    0.6734 C   0  0  0  0  0  0  0  0  0  0  0  0
   -1.7900   -4.4446    0.8335 C   0  0  0  0  0  0  0  0  0  0  0  0
    0.4574    0.7177    0.4451 C   0  0  0  0  0  0  0  0  0  0  0  0
   -0.1106   -0.0875   -0.5510 C   0  0  0  0  0  0  0  0  0  0  0  0
   -2.1712   -3.2900    0.1456 C   0  0  0  0  0  0  0  0  0  0  0  0
   -4.1100   -4.8319    1.3465 C   0  0  0  0  0  0  0  0  0  0  0  0
   -2.7851   -5.1959    1.4243 C   0  0  0  0  0  0  0  0  0  0  0  0
   -0.3803   -4.8559    0.9304 C   0  0  0  0  0  0  0  0  0  0  0  0
   -1.7644   -1.7987    3.6520 C   0  0  0  0  0  0  0  0  0  0  0  0
   -0.1388    0.4223    1.7852 C   0  0  0  0  0  0  0  0  0  0  0  0
   -3.9654   -6.6632    2.4899 C   0  0  0  0  0  0  0  0  0  0  0  0
   -1.1518   -1.0021    0.0354 C   0  0  2  0  0  0  0  0  0  0  0  0
   -0.7658   -0.9617    1.5347 C   0  0  2  0  0  0  0  0  0  0  0  0
   -1.1435   -2.4184   -0.5254 C   0  0  0  0  0  0  0  0  0  0  0  0
   -3.1095   -1.9457    4.3413 C   0  0  0  0  0  0  0  0  0  0  0  0
   -2.9917   -2.5878    5.7214 C   0  0  0  0  0  0  0  0  0  0  0  0
   -4.3598   -2.7563    6.3645 C   0  0  0  0  0  0  0  0  0  0  0  0
   -1.8889   -1.2126    2.3971 N   0  0  0  0  0  0  0  0  0  0  0  0
   -4.1922   -3.3396    7.7173 N   0  3  0  0  0  0  0  0  0  0  0  0
    0.1031   -5.6312    0.0226 O   0  5  0  0  0  0  0  0  0  0  0  0
    0.3239   -4.4274    1.9200 O   0  0  0  0  0  0  0  0  0  0  0  0
   -0.7058   -2.1615    4.1576 O   0  0  0  0  0  0  0  0  0  0  0  0
   -4.9255   -5.7076    1.9946 O   0  0  0  0  0  0  0  0  0  0  0  0
   -2.6052   -6.3448    2.1311 O   0  0  0  0  0  0  0  0  0  0  0  0
    2.5634    2.5477   -1.4572 H   0  0  0  0  0  0  0  0  0  0  0  0
    1.5604    1.1315   -3.2244 H   0  0  0  0  0  0  0  0  0  0  0  0
    1.8458    2.3010    0.9103 H   0  0  0  0  0  0  0  0  0  0  0  0
   -0.1719   -0.5499   -2.6597 H   0  0  0  0  0  0  0  0  0  0  0  0
   -3.8132   -2.0182   -0.4717 H   0  0  0  0  0  0  0  0  0  0  0  0
   -5.5577   -3.4138    0.6145 H   0  0  0  0  0  0  0  0  0  0  0  0
    0.6167    0.3767    2.5755 H   0  0  0  0  0  0  0  0  0  0  0  0
   -0.8902    1.1782    2.0386 H   0  0  0  0  0  0  0  0  0  0  0  0
   -4.0401   -6.7014    3.5828 H   0  0  0  0  0  0  0  0  0  0  0  0
   -4.2129   -7.6514    2.0852 H   0  0  0  0  0  0  0  0  0  0  0  0
   -2.1407   -0.5507   -0.1204 H   0  0  0  0  0  0  0  0  0  0  0  0
   -0.0191   -1.7378    1.7550 H   0  0  0  0  0  0  0  0  0  0  0  0
   -0.1470   -2.8572   -0.4016 H   0  0  0  0  0  0  0  0  0  0  0  0
   -1.3308   -2.3878   -1.6049 H   0  0  0  0  0  0  0  0  0  0  0  0
   -3.7581   -2.5544    3.6999 H   0  0  0  0  0  0  0  0  0  0  0  0
   -3.5600   -0.9497    4.4290 H   0  0  0  0  0  0  0  0  0  0  0  0
   -2.3510   -1.9691    6.3628 H   0  0  0  0  0  0  0  0  0  0  0  0
   -2.4971   -3.5636    5.6331 H   0  0  0  0  0  0  0  0  0  0  0  0
   -4.8728   -1.7987    6.4932 H   0  0  0  0  0  0  0  0  0  0  0  0
   -4.9970   -3.4428    5.7996 H   0  0  0  0  0  0  0  0  0  0  0  0
   -2.8193   -0.9807    2.0533 H   0  0  0  0  0  0  0  0  0  0  0  0
   -4.0837   -2.6040    8.4241 H   0  0  0  0  0  0  0  0  0  0  0  0
   -3.3617   -3.9407    7.7577 H   0  0  0  0  0  0  0  0  0  0  0  0
   -5.0061   -3.9081    7.9760 H   0  0  0  0  0  0  0  0  0  0  0  0
  1  2  1  0  0  0  0
  1  3  2  0  0  0  0
  2  4  2  0  0  0  0
  3  8  1  0  0  0  0
  4  9  1  0  0  0  0
  5  6  2  0  0  0  0
  5 10  1  0  0  0  0
  6 11  1  0  0  0  0
  7 10  2  0  0  0  0
  7 12  1  0  0  0  0
  7 13  1  0  0  0  0
  8  9  2  0  0  0  0
  8 15  1  0  0  0  0
  9 17  1  0  0  0  0
 10 19  1  0  0  0  0
 11 12  2  0  0  0  0
 11 28  1  0  0  0  0
 12 29  1  0  0  0  0
 13 25  1  0  0  0  0
 13 26  2  0  0  0  0
 14 20  1  0  0  0  0
 14 23  1  0  0  0  0
 14 27  2  0  0  0  0
 15 18  1  0  0  0  0
 16 28  1  0  0  0  0
 16 29  1  0  0  0  0
 17 18  1  0  0  0  0
 17 19  1  0  0  0  0
 18 23  1  0  0  0  0
 20 21  1  0  0  0  0
 21 22  1  0  0  0  0
 22 24  1  0  0  0  0
  1 30  1  0  0  0  0
  2 31  1  0  0  0  0
  3 32  1  0  0  0  0
  4 33  1  0  0  0  0
  5 34  1  0  0  0  0
  6 35  1  0  0  0  0
 15 36  1  0  0  0  0
 15 37  1  0  0  0  0
 16 38  1  0  0  0  0
 16 39  1  0  0  0  0
 17 40  1  0  0  0  0
 18 41  1  0  0  0  0
 19 42  1  0  0  0  0
 19 43  1  0  0  0  0
 20 44  1  0  0  0  0
 20 45  1  0  0  0  0
 21 46  1  0  0  0  0
 21 47  1  0  0  0  0
 22 48  1  0  0  0  0
 22 49  1  0  0  0  0
 23 50  1  0  0  0  0
 24 51  1  0  0  0  0
 24 52  1  0  0  0  0
 24 53  1  0  0  0  0
M  CHG  2  24   1  25  -1
M  END
$$$$
