AVX17378_0
  -OEChem-04011314533D

 30 31  0     0  0  0  0  0  0999 V2000
    1.8851   -1.0363   -0.1124 C   0  0  0  0  0  0  0  0  0  0  0  0
    0.8066   -0.4630    0.5610 C   0  0  0  0  0  0  0  0  0  0  0  0
    2.9210   -1.6309    0.6081 C   0  0  0  0  0  0  0  0  0  0  0  0
    0.7638   -0.4841    1.9551 C   0  0  0  0  0  0  0  0  0  0  0  0
    1.1075   -1.4227    6.1248 C   0  0  0  0  0  0  0  0  0  0  0  0
    2.8783   -1.6520    2.0022 C   0  0  0  0  0  0  0  0  0  0  0  0
    1.7997   -1.0786    2.6757 C   0  0  0  0  0  0  0  0  0  0  0  0
    2.3120   -0.6990    6.0391 C   0  0  0  0  0  0  0  0  0  0  0  0
    0.7563   -1.6609    4.8185 C   0  0  0  0  0  0  0  0  0  0  0  0
    3.9799   -2.2834    2.7197 C   0  0  0  0  0  0  0  0  0  0  0  0
   -0.4068   -2.3715    4.2519 C   0  0  0  0  0  0  0  0  0  0  0  0
    3.1284   -0.1821    7.1501 C   0  0  0  0  0  0  0  0  0  0  0  0
    2.7000   -0.4912    4.7780 N   0  0  0  0  0  0  0  0  0  0  0  0
    1.7339   -1.0880    4.0593 N   0  0  0  0  0  0  0  0  0  0  0  0
    3.8705   -3.6401    3.0016 N   0  0  0  0  0  0  0  0  0  0  0  0
    4.9719   -1.6303    3.0808 O   0  0  0  0  0  0  0  0  0  0  0  0
    4.2948   -0.9894    7.3198 O   0  0  0  0  0  0  0  0  0  0  0  0
    1.9187   -1.0200   -1.1979 H   0  0  0  0  0  0  0  0  0  0  0  0
   -0.0000   -0.0005   -0.0003 H   0  0  0  0  0  0  0  0  0  0  0  0
    3.7557   -2.0747    0.0714 H   0  0  0  0  0  0  0  0  0  0  0  0
   -0.0837   -0.0328    2.4658 H   0  0  0  0  0  0  0  0  0  0  0  0
    0.5686   -1.7285    7.0101 H   0  0  0  0  0  0  0  0  0  0  0  0
   -1.2493   -1.6816    4.0811 H   0  0  0  0  0  0  0  0  0  0  0  0
   -0.1679   -2.8538    3.2887 H   0  0  0  0  0  0  0  0  0  0  0  0
   -0.7629   -3.1776    4.9161 H   0  0  0  0  0  0  0  0  0  0  0  0
    3.4602    0.8586    6.9785 H   0  0  0  0  0  0  0  0  0  0  0  0
    2.5746   -0.1800    8.1070 H   0  0  0  0  0  0  0  0  0  0  0  0
    3.0417   -4.1441    2.7055 H   0  0  0  0  0  0  0  0  0  0  0  0
    4.6036   -4.1363    3.4980 H   0  0  0  0  0  0  0  0  0  0  0  0
    4.7884   -0.6036    8.0588 H   0  0  0  0  0  0  0  0  0  0  0  0
  1  2  2  0  0  0  0
  1  3  1  0  0  0  0
  2  4  1  0  0  0  0
  3  6  2  0  0  0  0
  4  7  2  0  0  0  0
  5  8  1  0  0  0  0
  5  9  2  0  0  0  0
  6  7  1  0  0  0  0
  6 10  1  0  0  0  0
  7 14  1  0  0  0  0
  8 12  1  0  0  0  0
  8 13  2  0  0  0  0
  9 11  1  0  0  0  0
  9 14  1  0  0  0  0
 10 15  1  0  0  0  0
 10 16  2  0  0  0  0
 12 17  1  0  0  0  0
 13 14  1  0  0  0  0
  1 18  1  0  0  0  0
  2 19  1  0  0  0  0
  3 20  1  0  0  0  0
  4 21  1  0  0  0  0
  5 22  1  0  0  0  0
 11 23  1  0  0  0  0
 11 24  1  0  0  0  0
 11 25  1  0  0  0  0
 12 26  1  0  0  0  0
 12 27  1  0  0  0  0
 15 28  1  0  0  0  0
 15 29  1  0  0  0  0
 17 30  1  0  0  0  0
M  END
$$$$
