@<TRIPOS>MOLECULE
AVX17377_0
   35    38     0     0     0
SMALL
NO_CHARGES

@<TRIPOS>ATOM
      1 C1          5.4219    5.1226   -2.0884 C.ar      1 MOL         0.0000
      2 C2          4.4712    6.1126   -2.3929 C.ar      1 MOL         0.0000
      3 C3          5.0209    3.8334   -1.7289 C.ar      1 MOL         0.0000
      4 C4         -0.0955    5.4503    0.2788 C.ar      1 MOL         0.0000
      5 C5          3.1040    5.8300   -2.3433 C.ar      1 MOL         0.0000
      6 C6         -0.8512    5.5574    1.4488 C.ar      1 MOL         0.0000
      7 C7         -1.9295    4.3176   -0.8532 C.ar      1 MOL         0.0000
      8 C8          3.6657    3.5634   -1.6823 C.ar      1 MOL         0.0000
      9 C9         -0.6316    4.8341   -0.8656 C.ar      1 MOL         0.0000
     10 C10         2.7261    4.5481   -1.9852 C.ar      1 MOL         0.0000
     11 C11        -2.1299    5.0393    1.4347 C.ar      1 MOL         0.0000
     12 C12        -2.6547    4.4361    0.3146 C.ar      1 MOL         0.0000
     13 C13         1.4901    2.6615   -1.4746 C.2       1 MOL         0.0000
     14 C14        -2.5140    3.6689   -2.0379 C.2       1 MOL         0.0000
     15 C15         2.9684    2.2880   -1.3335 C.3       1 MOL         0.0000
     16 C16        -4.1443    4.3889    1.8832 C.3       1 MOL         0.0000
     17 C17         0.2198    4.7433   -2.0990 C.3       1 MOL         0.0000
     18 N1          1.4392    4.0084   -1.8607 N.am      1 MOL         0.0000
     19 O1         -3.1604    4.3923   -2.8852 O.co2     1 MOL         0.0000
     20 O2          0.5588    1.8949   -1.2778 O.2       1 MOL         0.0000
     21 O3         -2.3603    2.3991   -2.1886 O.co2     1 MOL         0.0000
     22 O4         -3.0082    5.0522    2.4742 O.3       1 MOL         0.0000
     23 O5         -3.9270    3.9957    0.5126 O.3       1 MOL         0.0000
     24 H1          6.4803    5.3647   -2.1341 H         1 MOL         0.0000
     25 H2          4.8064    7.1086   -2.6699 H         1 MOL         0.0000
     26 H3          5.7554    3.0711   -1.4939 H         1 MOL         0.0000
     27 H4          0.9156    5.8502    0.2607 H         1 MOL         0.0000
     28 H5          2.3778    6.5992   -2.5802 H         1 MOL         0.0000
     29 H6         -0.4417    6.0318    2.3333 H         1 MOL         0.0000
     30 H7          3.2132    1.4915   -2.0408 H         1 MOL         0.0000
     31 H8          3.1725    1.9906   -0.3016 H         1 MOL         0.0000
     32 H9         -4.3737    3.4938    2.4727 H         1 MOL         0.0000
     33 H10        -5.0053    5.0661    1.9216 H         1 MOL         0.0000
     34 H11        -0.3237    4.2419   -2.9072 H         1 MOL         0.0000
     35 H12         0.4946    5.7396   -2.4610 H         1 MOL         0.0000
@<TRIPOS>BOND
     1    1    2 ar
     2    1    3 ar
     3    2    5 ar
     4    3    8 ar
     5    4    6 ar
     6    4    9 ar
     7    5   10 ar
     8    6   11 ar
     9    7    9 ar
    10    7   12 ar
    11    7   14 1
    12    8   10 ar
    13    8   15 1
    14    9   17 1
    15   10   18 1
    16   11   12 ar
    17   11   22 1
    18   12   23 1
    19   13   15 1
    20   13   18 am
    21   13   20 2
    22   14   19 1
    23   14   21 2
    24   16   22 1
    25   16   23 1
    26   17   18 1
    27    1   24 1
    28    2   25 1
    29    3   26 1
    30    4   27 1
    31    5   28 1
    32    6   29 1
    33   15   30 1
    34   15   31 1
    35   16   32 1
    36   16   33 1
    37   17   34 1
    38   17   35 1
