AVX17482_1
  -OEChem-04011314533D

 31 33  0     1  0  0  0  0  0999 V2000
   -1.9204    0.9555    0.2371 C   0  0  0  0  0  0  0  0  0  0  0  0
   -1.0710   -0.1533    0.1009 C   0  0  0  0  0  0  0  0  0  0  0  0
   -3.3002    0.7836    0.3651 C   0  0  0  0  0  0  0  0  0  0  0  0
   -1.5898   -1.4496    0.0889 C   0  0  0  0  0  0  0  0  0  0  0  0
   -5.5098   -6.9732   -1.0171 C   0  0  0  0  0  0  0  0  0  0  0  0
   -3.8051   -0.5062    0.3639 C   0  0  0  0  0  0  0  0  0  0  0  0
   -2.9600   -1.6126    0.2208 C   0  0  0  0  0  0  0  0  0  0  0  0
   -6.4192   -6.0592   -1.5067 C   0  0  0  0  0  0  0  0  0  0  0  0
   -4.7154   -4.7082   -1.2200 C   0  0  0  0  0  0  0  0  0  0  0  0
   -7.8478   -6.4509   -1.8979 C   0  0  0  0  0  0  0  0  0  0  0  0
   -5.2395   -0.9289    0.4558 C   0  0  0  0  0  0  0  0  0  0  0  0
   -3.7410   -2.8990    0.2166 C   0  0  1  0  0  0  0  0  0  0  0  0
   -5.0962   -2.4238    0.7918 C   0  0  1  0  0  0  0  0  0  0  0  0
   -3.8789   -3.4574   -1.1952 C   0  0  0  0  0  0  0  0  0  0  0  0
   -5.9656   -4.7598   -1.6233 N   0  0  0  0  0  0  0  0  0  0  0  0
   -8.5830   -5.5243   -2.3321 O   0  5  0  0  0  0  0  0  0  0  0  0
   -8.1561   -7.6635   -1.7490 O   0  0  0  0  0  0  0  0  0  0  0  0
   -5.0816   -2.5609    2.2158 O   0  0  0  0  0  0  0  0  0  0  0  0
   -4.0225   -6.1853   -0.6879 S   0  0  0  0  0  0  0  0  0  0  0  0
   -1.4991    1.9572    0.2394 H   0  0  0  0  0  0  0  0  0  0  0  0
   -0.0000   -0.0000   -0.0004 H   0  0  0  0  0  0  0  0  0  0  0  0
   -3.9556    1.6424    0.4627 H   0  0  0  0  0  0  0  0  0  0  0  0
   -0.9316   -2.3045   -0.0232 H   0  0  0  0  0  0  0  0  0  0  0  0
   -5.6390   -8.0320   -0.8417 H   0  0  0  0  0  0  0  0  0  0  0  0
   -5.7728   -0.3755    1.2343 H   0  0  0  0  0  0  0  0  0  0  0  0
   -5.7207   -0.7871   -0.5174 H   0  0  0  0  0  0  0  0  0  0  0  0
   -3.2643   -3.6324    0.8769 H   0  0  0  0  0  0  0  0  0  0  0  0
   -5.9502   -3.0027    0.4250 H   0  0  0  0  0  0  0  0  0  0  0  0
   -2.8849   -3.6668   -1.6056 H   0  0  0  0  0  0  0  0  0  0  0  0
   -4.3250   -2.6989   -1.8479 H   0  0  0  0  0  0  0  0  0  0  0  0
   -4.9908   -3.5079    2.3957 H   0  0  0  0  0  0  0  0  0  0  0  0
  1  2  2  0  0  0  0
  1  3  1  0  0  0  0
  2  4  1  0  0  0  0
  3  6  2  0  0  0  0
  4  7  2  0  0  0  0
  5  8  2  0  0  0  0
  5 19  1  0  0  0  0
  6  7  1  0  0  0  0
  6 11  1  0  0  0  0
  7 12  1  0  0  0  0
  8 10  1  0  0  0  0
  8 15  1  0  0  0  0
  9 14  1  0  0  0  0
  9 15  2  0  0  0  0
  9 19  1  0  0  0  0
 10 16  1  0  0  0  0
 10 17  2  0  0  0  0
 11 13  1  0  0  0  0
 12 13  1  0  0  0  0
 12 14  1  0  0  0  0
 13 18  1  0  0  0  0
  1 20  1  0  0  0  0
  2 21  1  0  0  0  0
  3 22  1  0  0  0  0
  4 23  1  0  0  0  0
  5 24  1  0  0  0  0
 11 25  1  0  0  0  0
 11 26  1  0  0  0  0
 12 27  1  0  0  0  0
 13 28  1  0  0  0  0
 14 29  1  0  0  0  0
 14 30  1  0  0  0  0
 18 31  1  0  0  0  0
M  CHG  1  16  -1
M  END
$$$$
