@<TRIPOS>MOLECULE
AVX101139_0
   57    59     0     0     0
SMALL
NO_CHARGES

@<TRIPOS>ATOM
      1 C1          7.8402    4.2014   -2.1032 C.ar      1 MOL         0.0000
      2 C2          7.6870    2.9245   -2.6430 C.ar      1 MOL         0.0000
      3 C3          6.9697    4.6472   -1.1086 C.ar      1 MOL         0.0000
      4 C4          6.6632    2.0933   -2.1884 C.ar      1 MOL         0.0000
      5 C5          5.9459    3.8161   -0.6540 C.ar      1 MOL         0.0000
      6 C6          1.9734    2.7142   -4.0319 C.ar      1 MOL         0.0000
      7 C7          0.8613    2.9698   -4.8340 C.ar      1 MOL         0.0000
      8 C8          1.5397    0.3424   -4.1865 C.ar      1 MOL         0.0000
      9 C9          5.7926    2.5391   -1.1938 C.ar      1 MOL         0.0000
     10 C10         2.3126    1.4004   -3.7081 C.ar      1 MOL         0.0000
     11 C11         0.0883    1.9118   -5.3123 C.ar      1 MOL         0.0000
     12 C12         0.4275    0.5981   -4.9886 C.ar      1 MOL         0.0000
     13 C13         1.8943   -1.0494   -3.8442 C.2       1 MOL         0.0000
     14 C14        -2.1123   -2.0006   -5.3687 C.2       1 MOL         0.0000
     15 C15         0.6252    2.0891    1.1171 C.3       1 MOL         0.0000
     16 C16         0.2460    3.4532    1.6544 C.3       1 MOL         0.0000
     17 C17         1.4730    3.7524   -0.3034 C.3       1 MOL         0.0000
     18 C18         1.8576    2.4132    0.3011 C.3       1 MOL         0.0000
     19 C19        -1.2713    3.5466   -6.3776 C.3       1 MOL         0.0000
     20 C20         4.6911    1.6457   -0.7045 C.3       1 MOL         0.0000
     21 C21         3.5142    1.1559   -2.8437 C.3       1 MOL         0.0000
     22 C22        -1.4271   -0.8511   -4.6477 C.3       1 MOL         0.0000
     23 C23         2.2175    1.3584   -0.7275 C.3       1 MOL         0.0000
     24 N1          3.4080    1.8066   -1.4848 N.4       1 MOL         0.0000
     25 O1          2.6934   -1.6895   -4.6217 O.co2     1 MOL         0.0000
     26 O2         -1.3769   -3.0009   -5.6028 O.co2     1 MOL         0.0000
     27 O3          1.3904   -1.5690   -2.7817 O.co2     1 MOL         0.0000
     28 O4         -3.3322   -1.8141   -5.6366 O.co2     1 MOL         0.0000
     29 O5          0.6472    4.4144    0.6670 O.3       1 MOL         0.0000
     30 O6         -0.9952    2.1762   -6.0948 O.3       1 MOL         0.0000
     31 O7         -0.3342   -0.4306   -5.4604 O.3       1 MOL         0.0000
     32 H1          8.6382    4.8480   -2.4563 H         1 MOL         0.0000
     33 H2          8.3653    2.5767   -3.4167 H         1 MOL         0.0000
     34 H3          7.0893    5.6410   -0.6873 H         1 MOL         0.0000
     35 H4          6.5512    1.0999   -2.6150 H         1 MOL         0.0000
     36 H5          5.2723    4.1719    0.1212 H         1 MOL         0.0000
     37 H6          2.5695    3.5452   -3.6643 H         1 MOL         0.0000
     38 H7          0.6024    3.9954   -5.0828 H         1 MOL         0.0000
     39 H8          0.8029    1.3578    1.9105 H         1 MOL         0.0000
     40 H9         -0.1755    1.7065    0.4724 H         1 MOL         0.0000
     41 H10        -0.8267    3.5462    1.8451 H         1 MOL         0.0000
     42 H11         0.7868    3.6799    2.5795 H         1 MOL         0.0000
     43 H12         2.3436    4.3763   -0.5263 H         1 MOL         0.0000
     44 H13         0.8826    3.6388   -1.2193 H         1 MOL         0.0000
     45 H14         2.7048    2.5585    0.9844 H         1 MOL         0.0000
     46 H15        -2.1598    3.6170   -7.0099 H         1 MOL         0.0000
     47 H16        -0.4134    3.9948   -6.8851 H         1 MOL         0.0000
     48 H17        -1.4528    4.0739   -5.4381 H         1 MOL         0.0000
     49 H18         4.9745    0.5903   -0.7795 H         1 MOL         0.0000
     50 H19         4.4500    1.8529    0.3437 H         1 MOL         0.0000
     51 H20         3.6649    0.0852   -2.6687 H         1 MOL         0.0000
     52 H21         4.4239    1.5490   -3.3104 H         1 MOL         0.0000
     53 H22        -1.0488   -1.1841   -3.6764 H         1 MOL         0.0000
     54 H23        -2.1082   -0.0075   -4.4998 H         1 MOL         0.0000
     55 H24         1.4113    1.2109   -1.4494 H         1 MOL         0.0000
     56 H25         2.4738    0.4081   -0.2543 H         1 MOL         0.0000
     57 H26         3.3098    2.8218   -1.6632 H         1 MOL         0.0000
@<TRIPOS>BOND
     1    1    2 ar
     2    1    3 ar
     3    2    4 ar
     4    3    5 ar
     5    4    9 ar
     6    5    9 ar
     7    6    7 ar
     8    6   10 ar
     9    7   11 ar
    10    8   10 ar
    11    8   12 ar
    12    8   13 1
    13    9   20 1
    14   10   21 1
    15   11   12 ar
    16   11   30 1
    17   12   31 1
    18   13   25 1
    19   13   27 2
    20   14   22 1
    21   14   26 1
    22   14   28 2
    23   15   16 1
    24   15   18 1
    25   16   29 1
    26   17   18 1
    27   17   29 1
    28   18   23 1
    29   19   30 1
    30   20   24 1
    31   21   24 1
    32   22   31 1
    33   23   24 1
    34    1   32 1
    35    2   33 1
    36    3   34 1
    37    4   35 1
    38    5   36 1
    39    6   37 1
    40    7   38 1
    41   15   39 1
    42   15   40 1
    43   16   41 1
    44   16   42 1
    45   17   43 1
    46   17   44 1
    47   18   45 1
    48   19   46 1
    49   19   47 1
    50   19   48 1
    51   20   49 1
    52   20   50 1
    53   21   51 1
    54   21   52 1
    55   22   53 1
    56   22   54 1
    57   23   55 1
    58   23   56 1
    59   24   57 1
