@<TRIPOS>MOLECULE
AVX17260_1
   35    38     0     0     0
SMALL
NO_CHARGES

@<TRIPOS>ATOM
      1 C1         -0.9770    7.8561    0.7026 C.ar      1 MOL         0.0000
      2 C2         -0.5912    8.0479    2.0420 C.ar      1 MOL         0.0000
      3 C3         -0.3299    6.9134   -0.1028 C.ar      1 MOL         0.0000
      4 C4          4.1775    3.9125   -1.8162 C.ar      1 MOL         0.0000
      5 C5          0.4475    7.3004    2.5994 C.ar      1 MOL         0.0000
      6 C6          4.7275    2.8395   -2.5216 C.ar      1 MOL         0.0000
      7 C7          2.1670    3.8391   -3.1876 C.ar      1 MOL         0.0000
      8 C8          0.7009    6.1793    0.4542 C.ar      1 MOL         0.0000
      9 C9          2.9046    4.4094   -2.1472 C.ar      1 MOL         0.0000
     10 C10         1.0696    6.3773    1.7831 C.ar      1 MOL         0.0000
     11 C11         3.9788    2.2944   -3.5443 C.ar      1 MOL         0.0000
     12 C12         2.7328    2.7807   -3.8683 C.ar      1 MOL         0.0000
     13 C13         2.4938    4.7372    1.0202 C.2       1 MOL         0.0000
     14 C14         0.8323    4.3400   -3.5530 C.2       1 MOL         0.0000
     15 C15         3.1956    1.1354   -5.1951 C.3       1 MOL         0.0000
     16 C16         1.5589    5.1040   -0.1489 C.3       1 MOL         0.0000
     17 C17         2.3543    5.5685   -1.3569 C.3       1 MOL         0.0000
     18 N1          2.1207    5.5290    2.1117 N.am      1 MOL         0.0000
     19 O1         -0.2005    3.8289   -2.9778 O.co2     1 MOL         0.0000
     20 O2          3.3885    3.9061    0.9827 O.2       1 MOL         0.0000
     21 O3          0.7407    5.2729   -4.4363 O.co2     1 MOL         0.0000
     22 O4          4.3482    1.2510   -4.3359 O.3       1 MOL         0.0000
     23 O5          2.1664    2.1028   -4.9035 O.3       1 MOL         0.0000
     24 H1         -1.7898    8.4488    0.2910 H         1 MOL         0.0000
     25 H2         -1.1102    8.7863    2.6474 H         1 MOL         0.0000
     26 H3         -0.6347    6.7666   -1.1331 H         1 MOL         0.0000
     27 H4          4.7450    4.3619   -1.0047 H         1 MOL         0.0000
     28 H5          0.7469    7.4454    3.6310 H         1 MOL         0.0000
     29 H6          5.7086    2.4533   -2.2695 H         1 MOL         0.0000
     30 H7          3.5179    1.2686   -6.2342 H         1 MOL         0.0000
     31 H8          2.7739    0.1298   -5.0833 H         1 MOL         0.0000
     32 H9          0.9464    4.2266   -0.3846 H         1 MOL         0.0000
     33 H10         3.1781    6.2172   -1.0331 H         1 MOL         0.0000
     34 H11         1.7203    6.1874   -2.0045 H         1 MOL         0.0000
     35 H12         2.5575    5.5037    3.0255 H         1 MOL         0.0000
@<TRIPOS>BOND
     1    1    2 ar
     2    1    3 ar
     3    2    5 ar
     4    3    8 ar
     5    4    6 ar
     6    4    9 ar
     7    5   10 ar
     8    6   11 ar
     9    7    9 ar
    10    7   12 ar
    11    7   14 1
    12    8   10 ar
    13    8   16 1
    14    9   17 1
    15   10   18 1
    16   11   12 ar
    17   11   22 1
    18   12   23 1
    19   13   16 1
    20   13   18 am
    21   13   20 2
    22   14   19 1
    23   14   21 2
    24   15   22 1
    25   15   23 1
    26   16   17 1
    27    1   24 1
    28    2   25 1
    29    3   26 1
    30    4   27 1
    31    5   28 1
    32    6   29 1
    33   15   30 1
    34   15   31 1
    35   16   32 1
    36   17   33 1
    37   17   34 1
    38   18   35 1
