AVX17233_0
  -OEChem-04011314523D

 26 27  0     0  0  0  0  0  0999 V2000
    1.8851   -1.0363   -0.1124 C   0  0  0  0  0  0  0  0  0  0  0  0
    2.8783   -1.6520    2.0022 C   0  0  0  0  0  0  0  0  0  0  0  0
    0.8066   -0.4630    0.5610 C   0  0  0  0  0  0  0  0  0  0  0  0
    1.7997   -1.0786    2.6757 C   0  0  0  0  0  0  0  0  0  0  0  0
    5.9011   -2.1037   -1.5656 C   0  0  0  0  0  0  0  0  0  0  0  0
    4.8435   -1.4669   -0.9258 C   0  0  0  0  0  0  0  0  0  0  0  0
    5.2586   -4.1298   -0.4986 C   0  0  0  0  0  0  0  0  0  0  0  0
    2.9210   -1.6309    0.6081 C   0  0  0  0  0  0  0  0  0  0  0  0
    0.7638   -0.4841    1.9551 C   0  0  0  0  0  0  0  0  0  0  0  0
    6.1195   -3.4603   -1.3533 C   0  0  0  0  0  0  0  0  0  0  0  0
    4.0396   -2.2257   -0.0904 C   0  0  0  0  0  0  0  0  0  0  0  0
   -0.3895    0.1286    2.6751 C   0  0  0  0  0  0  0  0  0  0  0  0
    4.2206   -3.5453    0.1406 N   0  0  0  0  0  0  0  0  0  0  0  0
    7.1891   -4.1369   -1.9912 N   0  3  0  0  0  0  0  0  0  0  0  0
    7.9472   -3.4938   -2.7588 O   0  5  0  0  0  0  0  0  0  0  0  0
    7.3528   -5.3630   -1.7731 O   0  0  0  0  0  0  0  0  0  0  0  0
    1.9036   -1.0124   -1.1995 H   0  0  0  0  0  0  0  0  0  0  0  0
    3.6784   -2.1111    2.5780 H   0  0  0  0  0  0  0  0  0  0  0  0
    0.0034   -0.0030   -0.0085 H   0  0  0  0  0  0  0  0  0  0  0  0
    1.7748   -1.0991    3.7621 H   0  0  0  0  0  0  0  0  0  0  0  0
    6.5475   -1.5320   -2.2266 H   0  0  0  0  0  0  0  0  0  0  0  0
    4.6661   -0.4083   -1.0860 H   0  0  0  0  0  0  0  0  0  0  0  0
    5.3765   -5.1895   -0.2920 H   0  0  0  0  0  0  0  0  0  0  0  0
   -1.1811   -0.6145    2.8307 H   0  0  0  0  0  0  0  0  0  0  0  0
   -0.0848    0.5223    3.6535 H   0  0  0  0  0  0  0  0  0  0  0  0
   -0.8094    0.9714    2.1106 H   0  0  0  0  0  0  0  0  0  0  0  0
  1  3  1  0  0  0  0
  1  8  2  0  0  0  0
  2  4  2  0  0  0  0
  2  8  1  0  0  0  0
  3  9  2  0  0  0  0
  4  9  1  0  0  0  0
  5  6  1  0  0  0  0
  5 10  2  0  0  0  0
  6 11  2  0  0  0  0
  7 10  1  0  0  0  0
  7 13  2  0  0  0  0
  8 11  1  0  0  0  0
  9 12  1  0  0  0  0
 10 14  1  0  0  0  0
 11 13  1  0  0  0  0
 14 15  1  0  0  0  0
 14 16  2  0  0  0  0
  1 17  1  0  0  0  0
  2 18  1  0  0  0  0
  3 19  1  0  0  0  0
  4 20  1  0  0  0  0
  5 21  1  0  0  0  0
  6 22  1  0  0  0  0
  7 23  1  0  0  0  0
 12 24  1  0  0  0  0
 12 25  1  0  0  0  0
 12 26  1  0  0  0  0
M  CHG  2  14   1  15  -1
M  END
$$$$
