@<TRIPOS>MOLECULE
AVX101122_1
   61    63     0     0     0
SMALL
NO_CHARGES

@<TRIPOS>ATOM
      1 C1          5.3515   -0.9477   -1.7191 C.ar      1 MOL         0.0000
      2 C2          5.0255   -1.2806   -3.0338 C.ar      1 MOL         0.0000
      3 C3          0.6993   -5.7698   -0.7480 C.ar      1 MOL         0.0000
      4 C4          4.3584   -0.5067   -0.8445 C.ar      1 MOL         0.0000
      5 C5          3.7063   -1.1726   -3.4739 C.ar      1 MOL         0.0000
      6 C6          1.0575   -4.6452   -1.4912 C.ar      1 MOL         0.0000
      7 C7         -1.6220   -0.2582    1.3586 C.ar      1 MOL         0.0000
      8 C8         -0.5629   -2.4279    1.4479 C.ar      1 MOL         0.0000
      9 C9         -0.4609   -6.4757   -1.0663 C.ar      1 MOL         0.0000
     10 C10        -2.8493   -0.8679    1.0988 C.ar      1 MOL         0.0000
     11 C11        -1.7903   -3.0377    1.1882 C.ar      1 MOL         0.0000
     12 C12         3.0392   -0.3986   -1.2846 C.ar      1 MOL         0.0000
     13 C13        -0.9048   -4.9322   -2.8711 C.ar      1 MOL         0.0000
     14 C14        -0.4787   -1.0382    1.5331 C.ar      1 MOL         0.0000
     15 C15         2.7131   -0.7315   -2.5993 C.ar      1 MOL         0.0000
     16 C16         0.2555   -4.2264   -2.5528 C.ar      1 MOL         0.0000
     17 C17        -2.9335   -2.2576    1.0136 C.ar      1 MOL         0.0000
     18 C18        -1.2630   -6.0569   -2.1279 C.ar      1 MOL         0.0000
     19 C19         2.0220    0.0652   -0.3508 C.2       1 MOL         0.0000
     20 C20        -1.7589   -4.4909   -3.9917 C.2       1 MOL         0.0000
     21 C21        -1.0358   -1.3378   -2.6177 C.3       1 MOL         0.0000
     22 C22        -4.1461   -4.2772    0.6874 C.3       1 MOL         0.0000
     23 C23        -2.6788   -7.8952   -1.6065 C.3       1 MOL         0.0000
     24 C24         0.8423   -0.3821    1.8133 C.3       1 MOL         0.0000
     25 C25         1.3027   -0.6241   -3.0994 C.3       1 MOL         0.0000
     26 C26         0.6653   -3.0126   -3.3337 C.3       1 MOL         0.0000
     27 N1          1.8280   -0.6985    0.8048 N.am      1 MOL         0.0000
     28 N2          0.4148   -1.7272   -2.5981 N.4       1 MOL         0.0000
     29 O1         -2.7058   -3.6550   -3.7513 O.co2     1 MOL         0.0000
     30 O2          1.3556    1.0837   -0.6014 O.2       1 MOL         0.0000
     31 O3         -1.5240   -4.9592   -5.1658 O.co2     1 MOL         0.0000
     32 O4         -4.1314   -2.8525    0.7614 O.3       1 MOL         0.0000
     33 O5         -2.3934   -6.7598   -2.4205 O.3       1 MOL         0.0000
     34 H1          6.3787   -1.0319   -1.3757 H         1 MOL         0.0000
     35 H2          5.7993   -1.6237   -3.7144 H         1 MOL         0.0000
     36 H3          1.3244   -6.0965    0.0778 H         1 MOL         0.0000
     37 H4          4.6255   -0.2493    0.1773 H         1 MOL         0.0000
     38 H5          3.4629   -1.4350   -4.5001 H         1 MOL         0.0000
     39 H6          1.9633   -4.1017   -1.2358 H         1 MOL         0.0000
     40 H7         -1.5656    0.8251    1.4232 H         1 MOL         0.0000
     41 H8          0.3227   -3.0436    1.5824 H         1 MOL         0.0000
     42 H9         -0.7338   -7.3508   -0.4823 H         1 MOL         0.0000
     43 H10        -3.7364   -0.2549    0.9640 H         1 MOL         0.0000
     44 H11        -1.8493   -4.1205    1.1234 H         1 MOL         0.0000
     45 H12        -1.3197   -1.1601   -3.6566 H         1 MOL         0.0000
     46 H13        -1.6089   -2.1624   -2.1896 H         1 MOL         0.0000
     47 H14        -1.1464   -0.4310   -2.0201 H         1 MOL         0.0000
     48 H15        -5.1625   -4.6217    0.4814 H         1 MOL         0.0000
     49 H16        -3.7928   -4.6958    1.6331 H         1 MOL         0.0000
     50 H17        -3.4844   -4.5981   -0.1206 H         1 MOL         0.0000
     51 H18        -3.6056   -8.3641   -1.9459 H         1 MOL         0.0000
     52 H19        -2.7770   -7.5818   -0.5641 H         1 MOL         0.0000
     53 H20        -1.8578   -8.6107   -1.6940 H         1 MOL         0.0000
     54 H21         0.7327    0.7073    1.8478 H         1 MOL         0.0000
     55 H22         1.2411   -0.6997    2.7825 H         1 MOL         0.0000
     56 H23         0.8417    0.3183   -2.7846 H         1 MOL         0.0000
     57 H24         1.2668   -0.6640   -4.1934 H         1 MOL         0.0000
     58 H25         1.7344   -3.0364   -3.5704 H         1 MOL         0.0000
     59 H26         0.1157   -2.9463   -4.2789 H         1 MOL         0.0000
     60 H27         2.3563   -1.5560    0.9287 H         1 MOL         0.0000
     61 H28         0.6662   -1.8909   -1.6138 H         1 MOL         0.0000
@<TRIPOS>BOND
     1    1    2 ar
     2    1    4 ar
     3    2    5 ar
     4    3    6 ar
     5    3    9 ar
     6    4   12 ar
     7    5   15 ar
     8    6   16 ar
     9    7   10 ar
    10    7   14 ar
    11    8   11 ar
    12    8   14 ar
    13    9   18 ar
    14   10   17 ar
    15   11   17 ar
    16   12   15 ar
    17   12   19 1
    18   13   16 ar
    19   13   18 ar
    20   13   20 1
    21   14   24 1
    22   15   25 1
    23   16   26 1
    24   17   32 1
    25   18   33 1
    26   19   27 am
    27   19   30 2
    28   20   29 1
    29   20   31 2
    30   21   28 1
    31   22   32 1
    32   23   33 1
    33   24   27 1
    34   25   28 1
    35   26   28 1
    36    1   34 1
    37    2   35 1
    38    3   36 1
    39    4   37 1
    40    5   38 1
    41    6   39 1
    42    7   40 1
    43    8   41 1
    44    9   42 1
    45   10   43 1
    46   11   44 1
    47   21   45 1
    48   21   46 1
    49   21   47 1
    50   22   48 1
    51   22   49 1
    52   22   50 1
    53   23   51 1
    54   23   52 1
    55   23   53 1
    56   24   54 1
    57   24   55 1
    58   25   56 1
    59   25   57 1
    60   26   58 1
    61   26   59 1
    62   27   60 1
    63   28   61 1
