@<TRIPOS>MOLECULE
AVX17482_2
   31    33     0     0     0
SMALL
NO_CHARGES

@<TRIPOS>ATOM
      1 C1          2.3687    1.2139   -0.5172 C.ar      1 MOL         0.0000
      2 C2          2.3964   -0.0723   -1.0778 C.ar      1 MOL         0.0000
      3 C3          1.2530    1.6549    0.1973 C.ar      1 MOL         0.0000
      4 C4          1.3094   -0.9362   -0.9302 C.ar      1 MOL         0.0000
      5 C5         -3.2468   -5.3069    1.0020 C.2       1 MOL         0.0000
      6 C6          0.1745    0.7958    0.3290 C.ar      1 MOL         0.0000
      7 C7          0.2036   -0.4899   -0.2235 C.ar      1 MOL         0.0000
      8 C8         -3.8924   -4.2369    1.5855 C.2       1 MOL         0.0000
      9 C9         -1.9469   -3.2912    1.2245 C.2       1 MOL         0.0000
     10 C10        -5.3449   -4.3171    2.0665 C.2       1 MOL         0.0000
     11 C11        -1.1042    1.0375    1.0713 C.3       1 MOL         0.0000
     12 C12        -1.0641   -1.2425    0.0794 C.3       1 MOL         0.0000
     13 C13        -1.9958   -0.0886    0.5171 C.3       1 MOL         0.0000
     14 C14        -0.8479   -2.2635    1.1909 C.3       1 MOL         0.0000
     15 N1         -3.1485   -3.0803    1.7142 N.2       1 MOL         0.0000
     16 O1         -5.8217   -3.2715    2.5831 O.co2     1 MOL         0.0000
     17 O2         -5.9287   -5.4214    1.9015 O.co2     1 MOL         0.0000
     18 O3         -2.6936    0.3909   -0.6363 O.3       1 MOL         0.0000
     19 S1         -1.6432   -4.8574    0.5923 S.3       1 MOL         0.0000
     20 H1          3.2263    1.8704   -0.6377 H         1 MOL         0.0000
     21 H2          3.2749   -0.3995   -1.6274 H         1 MOL         0.0000
     22 H3          1.2373    2.6463    0.6368 H         1 MOL         0.0000
     23 H4          1.3364   -1.9325   -1.3584 H         1 MOL         0.0000
     24 H5         -3.6239   -6.2999    0.8011 H         1 MOL         0.0000
     25 H6         -0.9283    0.9100    2.1441 H         1 MOL         0.0000
     26 H7         -1.5092    2.0318    0.8615 H         1 MOL         0.0000
     27 H8         -1.4383   -1.7325   -0.8271 H         1 MOL         0.0000
     28 H9         -2.7549   -0.4015    1.2413 H         1 MOL         0.0000
     29 H10        -0.7909   -1.7485    2.1562 H         1 MOL         0.0000
     30 H11         0.1196   -2.7585    1.0514 H         1 MOL         0.0000
     31 H12        -3.2384   -0.3459   -0.9491 H         1 MOL         0.0000
@<TRIPOS>BOND
     1    1    2 ar
     2    1    3 ar
     3    2    4 ar
     4    3    6 ar
     5    4    7 ar
     6    5    8 2
     7    5   19 1
     8    6    7 ar
     9    6   11 1
    10    7   12 1
    11    8   10 1
    12    8   15 1
    13    9   14 1
    14    9   15 2
    15    9   19 1
    16   10   16 1
    17   10   17 2
    18   11   13 1
    19   12   13 1
    20   12   14 1
    21   13   18 1
    22    1   20 1
    23    2   21 1
    24    3   22 1
    25    4   23 1
    26    5   24 1
    27   11   25 1
    28   11   26 1
    29   12   27 1
    30   13   28 1
    31   14   29 1
    32   14   30 1
    33   18   31 1
