@<TRIPOS>MOLECULE
AVX16756_0
   34    36     0     0     0
SMALL
NO_CHARGES

@<TRIPOS>ATOM
      1 C1         -3.7136   -1.1313   -1.1483 C.2       1 MOL         0.0000
      2 C2         -4.0338   -2.2306   -1.9963 C.2       1 MOL         0.0000
      3 C3          3.0153    1.0844    1.1301 C.ar      1 MOL         0.0000
      4 C4          0.2981    1.6540    1.3470 C.ar      1 MOL         0.0000
      5 C5          2.0839    0.3075    0.4417 C.ar      1 MOL         0.0000
      6 C6          0.7261    0.5990    0.5416 C.ar      1 MOL         0.0000
      7 C7          2.5950    2.1611    1.9193 C.ar      1 MOL         0.0000
      8 C8          1.2251    2.4215    2.0616 C.ar      1 MOL         0.0000
      9 C9         -2.3560   -1.0096   -0.9492 C.2       1 MOL         0.0000
     10 C10        -2.9085   -2.9072   -2.4133 C.2       1 MOL         0.0000
     11 C11         2.5661   -0.8100   -0.3921 C.2       1 MOL         0.0000
     12 C12        -1.6258   -0.0132   -0.1469 C.2       1 MOL         0.0000
     13 C13         2.5420    4.5921    3.8663 C.3       1 MOL         0.0000
     14 C14         3.3427    4.2762    2.6124 C.3       1 MOL         0.0000
     15 C15         1.3885    3.6225    4.0726 C.3       1 MOL         0.0000
     16 N1         -0.2254   -0.1602   -0.1451 N.am      1 MOL         0.0000
     17 O1          2.6834   -1.9732    0.1442 O.co2     1 MOL         0.0000
     18 O2          2.8521   -0.5804   -1.6249 O.co2     1 MOL         0.0000
     19 O3         -2.2266    0.8493    0.4902 O.2       1 MOL         0.0000
     20 O4          3.6061    2.8770    2.5092 O.3       1 MOL         0.0000
     21 O5          0.6795    3.4000    2.8537 O.3       1 MOL         0.0000
     22 S1         -1.4736   -2.2174   -1.7829 S.3       1 MOL         0.0000
     23 Cl1        -2.8281   -4.2798   -3.4364 Cl        1 MOL         0.0000
     24 H1         -4.4464   -0.4663   -0.7086 H         1 MOL         0.0000
     25 H2         -5.0407   -2.5069   -2.2827 H         1 MOL         0.0000
     26 H3          4.0775    0.8665    1.0380 H         1 MOL         0.0000
     27 H4         -0.7647    1.8696    1.4400 H         1 MOL         0.0000
     28 H5          3.1899    4.5527    4.7496 H         1 MOL         0.0000
     29 H6          2.1653    5.6184    3.7878 H         1 MOL         0.0000
     30 H7          2.8483    4.6537    1.7069 H         1 MOL         0.0000
     31 H8          4.3096    4.7892    2.6648 H         1 MOL         0.0000
     32 H9          1.7274    2.6741    4.5112 H         1 MOL         0.0000
     33 H10         0.6809    4.0528    4.7903 H         1 MOL         0.0000
     34 H11         0.1442   -0.9230   -0.7223 H         1 MOL         0.0000
@<TRIPOS>BOND
     1    1    2 1
     2    1    9 2
     3    2   10 2
     4    3    5 ar
     5    3    7 ar
     6    4    6 ar
     7    4    8 ar
     8    5    6 ar
     9    5   11 1
    10    6   16 1
    11    7    8 ar
    12    7   20 1
    13    8   21 1
    14    9   12 1
    15    9   22 1
    16   10   22 1
    17   10   23 1
    18   11   17 1
    19   11   18 2
    20   12   16 am
    21   12   19 2
    22   13   14 1
    23   13   15 1
    24   14   20 1
    25   15   21 1
    26    1   24 1
    27    2   25 1
    28    3   26 1
    29    4   27 1
    30   13   28 1
    31   13   29 1
    32   14   30 1
    33   14   31 1
    34   15   32 1
    35   15   33 1
    36   16   34 1
