@<TRIPOS>MOLECULE
AVX17387_0
   32    34     0     0     0
SMALL
NO_CHARGES

@<TRIPOS>ATOM
      1 C1         -1.1410   -6.2875   -2.5496 C.ar      1 MOL         0.0000
      2 C2         -2.2393   -5.4318   -2.4658 C.ar      1 MOL         0.0000
      3 C3          0.0516   -5.9567   -1.9062 C.ar      1 MOL         0.0000
      4 C4         -0.7036    1.3640    1.5041 C.ar      1 MOL         0.0000
      5 C5         -1.6773    1.6439    2.4698 C.ar      1 MOL         0.0000
      6 C6         -2.1450   -4.2452   -1.7387 C.ar      1 MOL         0.0000
      7 C7          0.1459   -4.7701   -1.1791 C.ar      1 MOL         0.0000
      8 C8         -0.7671    0.1975    0.7446 C.ar      1 MOL         0.0000
      9 C9         -4.5471   -0.4724    3.2738 C.2       1 MOL         0.0000
     10 C10        -2.7304    0.7292    2.6692 C.ar      1 MOL         0.0000
     11 C11        -0.9524   -3.9143   -1.0953 C.ar      1 MOL         0.0000
     12 C12        -1.8022   -0.7245    0.9247 C.ar      1 MOL         0.0000
     13 C13        -3.8586    0.6897    3.5356 C.2       1 MOL         0.0000
     14 C14        -2.7685   -0.4315    1.8936 C.ar      1 MOL         0.0000
     15 C15        -0.8521   -2.6608   -0.3271 C.2       1 MOL         0.0000
     16 C16        -1.9019   -1.9470    0.1529 C.2       1 MOL         0.0000
     17 C17        -4.2445    1.7371    4.5703 C.2       1 MOL         0.0000
     18 N1         -3.8818   -1.1421    2.2822 N.pl3     1 MOL         0.0000
     19 O1         -5.2912    1.5139    5.2437 O.co2     1 MOL         0.0000
     20 O2         -3.4868    2.7445    4.6711 O.co2     1 MOL         0.0000
     21 H1         -1.2148   -7.2120   -3.1147 H         1 MOL         0.0000
     22 H2         -3.1685   -5.6897   -2.9657 H         1 MOL         0.0000
     23 H3          0.9065   -6.6234   -1.9705 H         1 MOL         0.0000
     24 H4          0.1113    2.0656    1.3466 H         1 MOL         0.0000
     25 H5         -1.6138    2.5578    3.0535 H         1 MOL         0.0000
     26 H6         -3.0098   -3.5882   -1.6825 H         1 MOL         0.0000
     27 H7          1.0824   -4.5261   -0.6832 H         1 MOL         0.0000
     28 H8          0.0068    0.0116    0.0025 H         1 MOL         0.0000
     29 H9         -5.4496   -0.8843    3.7033 H         1 MOL         0.0000
     30 H10         0.1620   -2.3269   -0.1210 H         1 MOL         0.0000
     31 H11        -2.9164   -2.3279   -0.0230 H         1 MOL         0.0000
     32 H12        -4.1691   -2.0296    1.8934 H         1 MOL         0.0000
@<TRIPOS>BOND
     1    1    2 ar
     2    1    3 ar
     3    2    6 ar
     4    3    7 ar
     5    4    5 ar
     6    4    8 ar
     7    5   10 ar
     8    6   11 ar
     9    7   11 ar
    10    8   12 ar
    11    9   13 2
    12    9   18 1
    13   10   13 1
    14   10   14 ar
    15   11   15 1
    16   12   14 ar
    17   12   16 1
    18   13   17 1
    19   14   18 1
    20   15   16 2
    21   17   19 1
    22   17   20 2
    23    1   21 1
    24    2   22 1
    25    3   23 1
    26    4   24 1
    27    5   25 1
    28    6   26 1
    29    7   27 1
    30    8   28 1
    31    9   29 1
    32   15   30 1
    33   16   31 1
    34   18   32 1
