@<TRIPOS>MOLECULE
AVX17734_2
   67    70     0     0     0
SMALL
NO_CHARGES

@<TRIPOS>ATOM
      1 C1        -11.1292   -6.5074    0.0627 C.ar      1 MOL         0.0000
      2 C2         -7.6829   -0.5581    1.8222 C.ar      1 MOL         0.0000
      3 C3        -10.2209   -7.1257    0.9220 C.ar      1 MOL         0.0000
      4 C4        -10.6834   -5.9348   -1.1286 C.ar      1 MOL         0.0000
      5 C5         -7.3360   -0.2632    0.5038 C.ar      1 MOL         0.0000
      6 C6         -7.2391   -1.7416    2.4121 C.ar      1 MOL         0.0000
      7 C7         -8.8669   -7.1713    0.5901 C.ar      1 MOL         0.0000
      8 C8         -9.3294   -5.9804   -1.4605 C.ar      1 MOL         0.0000
      9 C9         -6.5453   -1.1518   -0.2248 C.ar      1 MOL         0.0000
     10 C10        -6.4485   -2.6303    1.6836 C.ar      1 MOL         0.0000
     11 C11        -0.7528    0.6980   -0.4153 C.ar      1 MOL         0.0000
     12 C12        -0.7240    2.0124    0.0510 C.ar      1 MOL         0.0000
     13 C13        -1.6345    1.4617   -2.5332 C.ar      1 MOL         0.0000
     14 C14        -8.4211   -6.5986   -0.6012 C.ar      1 MOL         0.0000
     15 C15        -6.1016   -2.3354    0.3651 C.ar      1 MOL         0.0000
     16 C16        -1.2024    0.4236   -1.7075 C.ar      1 MOL         0.0000
     17 C17        -1.1428    3.0524   -0.7793 C.ar      1 MOL         0.0000
     18 C18        -1.6183    2.7751   -2.0629 C.ar      1 MOL         0.0000
     19 C19        -2.1184    1.1660   -3.8973 C.2       1 MOL         0.0000
     20 C20        -6.0886   -4.3227   -1.1740 C.2       1 MOL         0.0000
     21 C21         1.1336    7.0907   -0.1799 C.2       1 MOL         0.0000
     22 C22        -3.1278   -2.1725   -1.0957 C.2       1 MOL         0.0000
     23 C23        -2.3352    4.9776   -2.2281 C.3       1 MOL         0.0000
     24 C24        -1.1782    5.3196   -1.2987 C.3       1 MOL         0.0000
     25 C25        -6.9637   -6.6471   -0.9589 C.3       1 MOL         0.0000
     26 C26        -1.2130   -0.9944   -2.1786 C.3       1 MOL         0.0000
     27 C27        -0.2905    6.9744    0.3761 C.3       1 MOL         0.0000
     28 C28        -1.3923    6.6641   -0.6190 C.3       1 MOL         0.0000
     29 C29        -5.2453   -3.2987   -0.4236 C.3       1 MOL         0.0000
     30 N1         -6.2446   -5.4994   -0.4547 N.am      1 MOL         0.0000
     31 N2         -2.5403   -1.5521   -2.1984 N.am      1 MOL         0.0000
     32 N3         -4.4133   -2.6204   -1.3894 N.am      1 MOL         0.0000
     33 O1         -1.2702    1.1634   -4.8629 O.co2     1 MOL         0.0000
     34 O2          2.0703    6.7660    0.6001 O.co2     1 MOL         0.0000
     35 O3         -3.3692    0.9230   -4.0663 O.co2     1 MOL         0.0000
     36 O4         -6.5343   -4.1211   -2.3019 O.2       1 MOL         0.0000
     37 O5          1.1910    7.4929   -1.3778 O.co2     1 MOL         0.0000
     38 O6         -2.5801   -2.3063   -0.0022 O.2       1 MOL         0.0000
     39 O7         -2.0732    3.7483   -2.9129 O.3       1 MOL         0.0000
     40 O8         -1.0714    4.3233   -0.2727 O.3       1 MOL         0.0000
     41 H1        -12.1836   -6.4732    0.3206 H         1 MOL         0.0000
     42 H2         -8.2974    0.1347    2.3898 H         1 MOL         0.0000
     43 H3        -10.5680   -7.5726    1.8491 H         1 MOL         0.0000
     44 H4        -11.3904   -5.4543   -1.7984 H         1 MOL         0.0000
     45 H5         -7.6805    0.6589    0.0446 H         1 MOL         0.0000
     46 H6         -7.5081   -1.9710    3.4389 H         1 MOL         0.0000
     47 H7         -8.1663   -7.6549    1.2658 H         1 MOL         0.0000
     48 H8         -8.9912   -5.5314   -2.3907 H         1 MOL         0.0000
     49 H9         -6.2801   -0.9139   -1.2516 H         1 MOL         0.0000
     50 H10        -6.1075   -3.5501    2.1514 H         1 MOL         0.0000
     51 H11        -0.4181   -0.1060    0.2351 H         1 MOL         0.0000
     52 H12        -0.3629    2.2182    1.0549 H         1 MOL         0.0000
     53 H13        -3.2819    4.8750   -1.6826 H         1 MOL         0.0000
     54 H14        -2.4637    5.7550   -2.9887 H         1 MOL         0.0000
     55 H15        -0.2294    5.3402   -1.8520 H         1 MOL         0.0000
     56 H16        -6.4946   -7.5470   -0.5463 H         1 MOL         0.0000
     57 H17        -6.8265   -6.6776   -2.0449 H         1 MOL         0.0000
     58 H18        -0.8040   -1.0744   -3.1944 H         1 MOL         0.0000
     59 H19        -0.5962   -1.6346   -1.5347 H         1 MOL         0.0000
     60 H20        -0.5189    7.9448    0.8346 H         1 MOL         0.0000
     61 H21        -0.2903    6.2305    1.1827 H         1 MOL         0.0000
     62 H22        -1.4684    7.4280   -1.3909 H         1 MOL         0.0000
     63 H23        -2.3509    6.6139   -0.1031 H         1 MOL         0.0000
     64 H24        -4.5514   -3.8279    0.2406 H         1 MOL         0.0000
     65 H25        -5.8376   -5.5735    0.4730 H         1 MOL         0.0000
     66 H26        -3.0771   -1.4906   -3.0606 H         1 MOL         0.0000
     67 H27        -4.8016   -2.4243   -2.3067 H         1 MOL         0.0000
@<TRIPOS>BOND
     1    1    3 ar
     2    1    4 ar
     3    2    5 ar
     4    2    6 ar
     5    3    7 ar
     6    4    8 ar
     7    5    9 ar
     8    6   10 ar
     9    7   14 ar
    10    8   14 ar
    11    9   15 ar
    12   10   15 ar
    13   11   12 ar
    14   11   16 ar
    15   12   17 ar
    16   13   16 ar
    17   13   18 ar
    18   13   19 1
    19   14   25 1
    20   15   29 1
    21   16   26 1
    22   17   18 ar
    23   17   40 1
    24   18   39 1
    25   19   33 1
    26   19   35 2
    27   20   29 1
    28   20   30 am
    29   20   36 2
    30   21   27 1
    31   21   34 1
    32   21   37 2
    33   22   31 am
    34   22   32 am
    35   22   38 2
    36   23   24 1
    37   23   39 1
    38   24   28 1
    39   24   40 1
    40   25   30 1
    41   26   31 1
    42   27   28 1
    43   29   32 1
    44    1   41 1
    45    2   42 1
    46    3   43 1
    47    4   44 1
    48    5   45 1
    49    6   46 1
    50    7   47 1
    51    8   48 1
    52    9   49 1
    53   10   50 1
    54   11   51 1
    55   12   52 1
    56   23   53 1
    57   23   54 1
    58   24   55 1
    59   25   56 1
    60   25   57 1
    61   26   58 1
    62   26   59 1
    63   27   60 1
    64   27   61 1
    65   28   62 1
    66   28   63 1
    67   29   64 1
    68   30   65 1
    69   31   66 1
    70   32   67 1
