@<TRIPOS>MOLECULE
AVX17228_0
   32    33     0     0     0
SMALL
NO_CHARGES

@<TRIPOS>ATOM
      1 C1         -0.5905    3.8786    0.6468 C.ar      1 MOL         0.0000
      2 C2         -0.3410    2.7174   -0.0785 C.ar      1 MOL         0.0000
      3 C3          1.7503    4.3699    0.6120 C.ar      1 MOL         0.0000
      4 C4          0.4634    4.7167    0.9981 C.ar      1 MOL         0.0000
      5 C5          0.9663    2.4213   -0.4374 C.ar      1 MOL         0.0000
      6 C6          0.9345   -0.0289   -0.5691 C.3       1 MOL         0.0000
      7 C7          2.4324    1.2733   -2.0711 C.3       1 MOL         0.0000
      8 C8          0.7814   -1.0932   -1.6473 C.3       1 MOL         0.0000
      9 C9          2.2800    0.2030   -3.1445 C.3       1 MOL         0.0000
     10 C10         1.9979   -2.2504   -3.4916 C.3       1 MOL         0.0000
     11 N1          1.9623    3.2459   -0.0860 N.ar      1 MOL         0.0000
     12 N2          1.2781    1.2681   -1.1668 N.pl3     1 MOL         0.0000
     13 N3          0.2290    5.9041    1.7368 N.pl3     1 MOL         0.0000
     14 N4          2.0314   -1.1312   -2.4893 N.4       1 MOL         0.0000
     15 O1         -0.9465    6.1919    2.0721 O.3       1 MOL         0.0000
     16 O2          1.2027    6.6378    2.0373 O.2       1 MOL         0.0000
     17 H1         -1.6115    4.1191    0.9324 H         1 MOL         0.0000
     18 H2         -1.1616    2.0619   -0.3537 H         1 MOL         0.0000
     19 H3          2.6341    4.9529    0.8352 H         1 MOL         0.0000
     20 H4         -0.0097    0.0474   -0.0158 H         1 MOL         0.0000
     21 H5          1.7134   -0.3268    0.1450 H         1 MOL         0.0000
     22 H6          3.3537    1.1014   -1.4993 H         1 MOL         0.0000
     23 H7          2.5262    2.2500   -2.5615 H         1 MOL         0.0000
     24 H8          0.6528   -2.0831   -1.1976 H         1 MOL         0.0000
     25 H9         -0.0613   -0.8801   -2.3153 H         1 MOL         0.0000
     26 H10         1.4307    0.4094   -3.8060 H         1 MOL         0.0000
     27 H11         3.1957    0.1171   -3.7387 H         1 MOL         0.0000
     28 H12         1.1622   -2.0667   -4.1693 H         1 MOL         0.0000
     29 H13         2.9479   -2.2460   -4.0293 H         1 MOL         0.0000
     30 H14         1.8610   -3.1850   -2.9443 H         1 MOL         0.0000
     31 H15         2.9143    3.0072   -0.3610 H         1 MOL         0.0000
     32 H16         2.8241   -1.3231   -1.8617 H         1 MOL         0.0000
@<TRIPOS>BOND
     1    1    2 ar
     2    1    4 ar
     3    2    5 ar
     4    3    4 ar
     5    3   11 ar
     6    4   13 1
     7    5   11 ar
     8    5   12 1
     9    6    8 1
    10    6   12 1
    11    7    9 1
    12    7   12 1
    13    8   14 1
    14    9   14 1
    15   10   14 1
    16   13   15 1
    17   13   16 2
    18    1   17 1
    19    2   18 1
    20    3   19 1
    21    6   20 1
    22    6   21 1
    23    7   22 1
    24    7   23 1
    25    8   24 1
    26    8   25 1
    27    9   26 1
    28    9   27 1
    29   10   28 1
    30   10   29 1
    31   10   30 1
    32   11   31 1
    33   14   32 1
