@<TRIPOS>MOLECULE
AVX17684m_0
   53    56     0     0     0
SMALL
NO_CHARGES

@<TRIPOS>ATOM
      1 C1          2.8868   -7.0048   -7.1911 C.ar      1 MOL         0.0000
      2 C2         -0.0052    0.8633   -5.0902 C.ar      1 MOL         0.0000
      3 C3          3.1092   -6.7921   -5.8307 C.ar      1 MOL         0.0000
      4 C4          3.0531   -5.9574   -8.0972 C.ar      1 MOL         0.0000
      5 C5         -0.6237    0.8519   -3.8401 C.ar      1 MOL         0.0000
      6 C6          1.1773    0.1509   -5.2899 C.ar      1 MOL         0.0000
      7 C7          3.4979   -5.5319   -5.3763 C.ar      1 MOL         0.0000
      8 C8          3.4418   -4.6972   -7.6428 C.ar      1 MOL         0.0000
      9 C9         -0.0596    0.1283   -2.7895 C.ar      1 MOL         0.0000
     10 C10         3.0559   -5.8516   -1.4483 C.ar      1 MOL         0.0000
     11 C11         2.9429   -7.2333   -1.6199 C.ar      1 MOL         0.0000
     12 C12         1.7414   -0.5727   -4.2393 C.ar      1 MOL         0.0000
     13 C13         0.7188   -5.6998   -0.7830 C.ar      1 MOL         0.0000
     14 C14         3.6642   -4.4844   -6.2823 C.ar      1 MOL         0.0000
     15 C15         1.1230   -0.5841   -2.9891 C.ar      1 MOL         0.0000
     16 C16         1.9503   -5.0892   -1.0321 C.ar      1 MOL         0.0000
     17 C17         1.7159   -7.8116   -1.3673 C.ar      1 MOL         0.0000
     18 C18         0.6337   -7.0655   -0.9599 C.ar      1 MOL         0.0000
     19 C19         2.9771   -1.3071   -4.4750 C.2       1 MOL         0.0000
     20 C20        -0.4532   -4.9245   -0.3456 C.2       1 MOL         0.0000
     21 C21         0.0280   -9.1382   -1.0970 C.3       1 MOL         0.0000
     22 C22         4.0823   -3.1277   -5.7938 C.3       1 MOL         0.0000
     23 C23         1.7082   -1.3533   -1.8416 C.3       1 MOL         0.0000
     24 C24         2.1210   -3.6138   -0.8625 C.3       1 MOL         0.0000
     25 N1          2.9460   -2.2990   -5.4606 N.am      1 MOL         0.0000
     26 N2          1.5021   -2.8210   -1.9587 N.4       1 MOL         0.0000
     27 O1         -0.6502   -4.7573    0.9161 O.co2     1 MOL         0.0000
     28 O2          3.9934   -1.0600   -3.8039 O.2       1 MOL         0.0000
     29 O3         -1.2438   -4.4388   -1.2389 O.co2     1 MOL         0.0000
     30 O4          1.4188   -9.1349   -1.4789 O.3       1 MOL         0.0000
     31 O5         -0.4765   -7.8282   -0.7658 O.3       1 MOL         0.0000
     32 H1          2.5854   -7.9864   -7.5450 H         1 MOL         0.0000
     33 H2         -0.4443    1.4265   -5.9088 H         1 MOL         0.0000
     34 H3          2.9808   -7.6078   -5.1252 H         1 MOL         0.0000
     35 H4          2.8811   -6.1229   -9.1566 H         1 MOL         0.0000
     36 H5         -1.5443    1.4070   -3.6851 H         1 MOL         0.0000
     37 H6          1.6501    0.1686   -6.2686 H         1 MOL         0.0000
     38 H7          3.6688   -5.3753   -4.3144 H         1 MOL         0.0000
     39 H8          3.5688   -3.8870   -8.3560 H         1 MOL         0.0000
     40 H9         -0.5497    0.1257   -1.8195 H         1 MOL         0.0000
     41 H10         4.0113   -5.3686   -1.6397 H         1 MOL         0.0000
     42 H11         3.7929   -7.8248   -1.9405 H         1 MOL         0.0000
     43 H12        -0.5628   -9.5420   -1.9272 H         1 MOL         0.0000
     44 H13        -0.0953   -9.7922   -0.2261 H         1 MOL         0.0000
     45 H14         4.7093   -3.2155   -4.8999 H         1 MOL         0.0000
     46 H15         4.6699   -2.6006   -6.5528 H         1 MOL         0.0000
     47 H16         2.7890   -1.1924   -1.7672 H         1 MOL         0.0000
     48 H17         1.2591   -1.0475   -0.8905 H         1 MOL         0.0000
     49 H18         1.6646   -3.2617    0.0711 H         1 MOL         0.0000
     50 H19         3.1815   -3.3332   -0.8369 H         1 MOL         0.0000
     51 H20         2.0720   -2.5020   -5.9345 H         1 MOL         0.0000
     52 H21         0.4927   -3.0189   -1.9883 H         1 MOL         0.0000
     53 H22         1.8777   -3.1436   -2.8608 H         1 MOL         0.0000
@<TRIPOS>BOND
     1    1    3 ar
     2    1    4 ar
     3    2    5 ar
     4    2    6 ar
     5    3    7 ar
     6    4    8 ar
     7    5    9 ar
     8    6   12 ar
     9    7   14 ar
    10    8   14 ar
    11    9   15 ar
    12   10   11 ar
    13   10   16 ar
    14   11   17 ar
    15   12   15 ar
    16   12   19 1
    17   13   16 ar
    18   13   18 ar
    19   13   20 1
    20   14   22 1
    21   15   23 1
    22   16   24 1
    23   17   18 ar
    24   17   30 1
    25   18   31 1
    26   19   25 am
    27   19   28 2
    28   20   27 1
    29   20   29 2
    30   21   30 1
    31   21   31 1
    32   22   25 1
    33   23   26 1
    34   24   26 1
    35    1   32 1
    36    2   33 1
    37    3   34 1
    38    4   35 1
    39    5   36 1
    40    6   37 1
    41    7   38 1
    42    8   39 1
    43    9   40 1
    44   10   41 1
    45   11   42 1
    46   21   43 1
    47   21   44 1
    48   22   45 1
    49   22   46 1
    50   23   47 1
    51   23   48 1
    52   24   49 1
    53   24   50 1
    54   25   51 1
    55   26   52 1
    56   26   53 1
