AVX17544_1
  -OEChem-04011314533D

 38 40  0     1  0  0  0  0  0999 V2000
    0.3090    1.4639    1.5082 C   0  0  0  0  0  0  0  0  0  0  0  0
   -0.7690    0.9545    2.2368 C   0  0  0  0  0  0  0  0  0  0  0  0
   -0.2636    0.0527   -0.3933 C   0  0  0  0  0  0  0  0  0  0  0  0
    0.5717    1.0274    0.1908 C   0  0  0  0  0  0  0  0  0  0  0  0
   -1.5720    0.0138    1.6267 C   0  0  0  0  0  0  0  0  0  0  0  0
   -1.3332   -0.4268    0.3450 C   0  0  0  0  0  0  0  0  0  0  0  0
   -0.0412   -0.4429   -1.7718 C   0  0  0  0  0  0  0  0  0  0  0  0
    1.7233    1.6289   -0.5770 C   0  0  0  0  0  0  0  0  0  0  0  0
    2.4019   -0.7645   -1.2452 C   0  0  0  0  0  0  0  0  0  0  0  0
   -3.0812   -1.4499    1.1199 C   0  0  0  0  0  0  0  0  0  0  0  0
    2.8735    0.6426   -0.8534 C   0  0  2  0  0  0  0  0  0  0  0  0
    5.8269   -0.1638   -1.0653 C   0  0  0  0  0  0  0  0  0  0  0  0
    5.8118   -0.5367    1.4094 C   0  0  0  0  0  0  0  0  0  0  0  0
    3.8268    0.5537    0.3416 C   0  0  0  0  0  0  0  0  0  0  0  0
    4.9485   -0.4760    0.1470 C   0  0  0  0  0  0  0  0  0  0  0  0
    1.2583   -0.7485   -2.1414 N   0  0  0  0  0  0  0  0  0  0  0  0
   -1.0024   -0.5612   -2.5279 O   0  0  0  0  0  0  0  0  0  0  0  0
   -2.6592   -0.5820    2.1892 O   0  0  0  0  0  0  0  0  0  0  0  0
   -2.2427   -1.3616   -0.0484 O   0  0  0  0  0  0  0  0  0  0  0  0
    0.9469    2.2130    1.9719 H   0  0  0  0  0  0  0  0  0  0  0  0
   -0.9646    1.2955    3.2473 H   0  0  0  0  0  0  0  0  0  0  0  0
    1.3303    2.0094   -1.5299 H   0  0  0  0  0  0  0  0  0  0  0  0
    2.1081    2.5172   -0.0597 H   0  0  0  0  0  0  0  0  0  0  0  0
    3.2092   -1.3017   -1.7557 H   0  0  0  0  0  0  0  0  0  0  0  0
    2.1293   -1.3549   -0.3620 H   0  0  0  0  0  0  0  0  0  0  0  0
   -3.0708   -2.4843    1.4821 H   0  0  0  0  0  0  0  0  0  0  0  0
   -4.1068   -1.1864    0.8370 H   0  0  0  0  0  0  0  0  0  0  0  0
    3.4472    1.0568   -1.6938 H   0  0  0  0  0  0  0  0  0  0  0  0
    6.3018    0.8184   -0.9692 H   0  0  0  0  0  0  0  0  0  0  0  0
    5.2449   -0.1724   -1.9918 H   0  0  0  0  0  0  0  0  0  0  0  0
    6.6191   -0.9126   -1.1736 H   0  0  0  0  0  0  0  0  0  0  0  0
    6.2896    0.4281    1.6111 H   0  0  0  0  0  0  0  0  0  0  0  0
    6.5997   -1.2903    1.3065 H   0  0  0  0  0  0  0  0  0  0  0  0
    5.2072   -0.8050    2.2822 H   0  0  0  0  0  0  0  0  0  0  0  0
    4.2455    1.5468    0.5286 H   0  0  0  0  0  0  0  0  0  0  0  0
    3.2327    0.2845    1.2203 H   0  0  0  0  0  0  0  0  0  0  0  0
    4.4995   -1.4664   -0.0008 H   0  0  0  0  0  0  0  0  0  0  0  0
    1.4249   -0.9798   -3.1160 H   0  0  0  0  0  0  0  0  0  0  0  0
  1  2  2  0  0  0  0
  1  4  1  0  0  0  0
  2  5  1  0  0  0  0
  3  4  2  0  0  0  0
  3  6  1  0  0  0  0
  3  7  1  0  0  0  0
  4  8  1  0  0  0  0
  5  6  2  0  0  0  0
  5 18  1  0  0  0  0
  6 19  1  0  0  0  0
  7 16  1  0  0  0  0
  7 17  2  0  0  0  0
  8 11  1  0  0  0  0
  9 11  1  0  0  0  0
  9 16  1  0  0  0  0
 10 18  1  0  0  0  0
 10 19  1  0  0  0  0
 11 14  1  0  0  0  0
 12 15  1  0  0  0  0
 13 15  1  0  0  0  0
 14 15  1  0  0  0  0
  1 20  1  0  0  0  0
  2 21  1  0  0  0  0
  8 22  1  0  0  0  0
  8 23  1  0  0  0  0
  9 24  1  0  0  0  0
  9 25  1  0  0  0  0
 10 26  1  0  0  0  0
 10 27  1  0  0  0  0
 11 28  1  0  0  0  0
 12 29  1  0  0  0  0
 12 30  1  0  0  0  0
 12 31  1  0  0  0  0
 13 32  1  0  0  0  0
 13 33  1  0  0  0  0
 13 34  1  0  0  0  0
 14 35  1  0  0  0  0
 14 36  1  0  0  0  0
 15 37  1  0  0  0  0
 16 38  1  0  0  0  0
M  END
$$$$
