@<TRIPOS>MOLECULE
AVX17286_0
   33    36     0     0     0
SMALL
NO_CHARGES

@<TRIPOS>ATOM
      1 C1         -0.1948   -1.2188   -1.7733 C.ar      1 MOL         0.0000
      2 C2          0.0489   -1.0083   -0.4029 C.ar      1 MOL         0.0000
      3 C3         -0.1402   -2.5032   -2.3253 C.ar      1 MOL         0.0000
      4 C4         -1.5133   -4.9841   -4.4272 C.ar      1 MOL         0.0000
      5 C5          0.3519   -2.0775    0.4422 C.ar      1 MOL         0.0000
      6 C6         -1.8854   -4.4384   -5.6582 C.ar      1 MOL         0.0000
      7 C7          0.1604   -3.5565   -1.4826 C.ar      1 MOL         0.0000
      8 C8         -0.1562   -5.1275   -4.0888 C.ar      1 MOL         0.0000
      9 C9          0.8444   -4.7269   -4.9775 C.ar      1 MOL         0.0000
     10 C10         0.4008   -3.3366   -0.1231 C.ar      1 MOL         0.0000
     11 C11        -0.8780   -4.0509   -6.5176 C.ar      1 MOL         0.0000
     12 C12         0.4503   -4.1911   -6.1864 C.ar      1 MOL         0.0000
     13 C13         0.3033   -4.9945   -1.6833 C.2       1 MOL         0.0000
     14 C14         0.6440   -5.6207   -0.3620 C.2       1 MOL         0.0000
     15 C15         0.1687   -5.6938   -2.8117 C.2       1 MOL         0.0000
     16 C16         2.2762   -4.8594   -4.6549 C.2       1 MOL         0.0000
     17 C17         0.3223   -3.3134   -8.1599 C.3       1 MOL         0.0000
     18 N1          0.6826   -4.5427    0.5281 N.am      1 MOL         0.0000
     19 O1          2.8693   -3.8825   -4.0630 O.co2     1 MOL         0.0000
     20 O2          0.8372   -6.8024   -0.1432 O.2       1 MOL         0.0000
     21 O3          2.8841   -5.9473   -4.9765 O.co2     1 MOL         0.0000
     22 O4         -1.0479   -3.5021   -7.7512 O.3       1 MOL         0.0000
     23 O5          1.2783   -3.7480   -7.1713 O.3       1 MOL         0.0000
     24 H1         -0.4282   -0.3694   -2.4102 H         1 MOL         0.0000
     25 H2          0.0012    0.0003   -0.0007 H         1 MOL         0.0000
     26 H3         -0.3291   -2.6545   -3.3823 H         1 MOL         0.0000
     27 H4         -2.2924   -5.2953   -3.7344 H         1 MOL         0.0000
     28 H5          0.5403   -1.9161    1.4974 H         1 MOL         0.0000
     29 H6         -2.9310   -4.3267   -5.9224 H         1 MOL         0.0000
     30 H7          0.2882   -6.7757   -2.7526 H         1 MOL         0.0000
     31 H8          0.4932   -3.8755   -9.0852 H         1 MOL         0.0000
     32 H9          0.4845   -2.2480   -8.3600 H         1 MOL         0.0000
     33 H10         0.8882   -4.6244    1.5170 H         1 MOL         0.0000
@<TRIPOS>BOND
     1    1    2 ar
     2    1    3 ar
     3    2    5 ar
     4    3    7 ar
     5    4    6 ar
     6    4    8 ar
     7    5   10 ar
     8    6   11 ar
     9    7   10 ar
    10    7   13 1
    11    8    9 ar
    12    8   15 1
    13    9   12 ar
    14    9   16 1
    15   10   18 1
    16   11   12 ar
    17   11   22 1
    18   12   23 1
    19   13   14 1
    20   13   15 2
    21   14   18 am
    22   14   20 2
    23   16   19 1
    24   16   21 2
    25   17   22 1
    26   17   23 1
    27    1   24 1
    28    2   25 1
    29    3   26 1
    30    4   27 1
    31    5   28 1
    32    6   29 1
    33   15   30 1
    34   17   31 1
    35   17   32 1
    36   18   33 1
