@<TRIPOS>MOLECULE
AVX16757_0
   56    59     0     0     0
SMALL
NO_CHARGES

@<TRIPOS>ATOM
      1 C1         -4.4176   -0.4924    3.0908 C.ar      1 MOL         0.0000
      2 C2         -4.3411   -0.9565    4.4040 C.ar      1 MOL         0.0000
      3 C3         -3.7759    0.6929    2.7315 C.ar      1 MOL         0.0000
      4 C4         -5.8529   -0.6741   10.6305 C.ar      1 MOL         0.0000
      5 C5         -2.9813    0.9500    4.9985 C.ar      1 MOL         0.0000
      6 C6         -3.1026   -0.6469   10.1945 C.ar      1 MOL         0.0000
      7 C7         -3.6230   -0.2353    5.3578 C.ar      1 MOL         0.0000
      8 C8         -5.3448   -0.2100    9.4175 C.ar      1 MOL         0.0000
      9 C9         -3.9703   -0.2066    9.1955 C.ar      1 MOL         0.0000
     10 C10        -4.9897   -1.1422   11.6278 C.ar      1 MOL         0.0000
     11 C11        -3.6038   -1.0893   11.4242 C.ar      1 MOL         0.0000
     12 C12        -3.0578    1.4141    3.6853 C.ar      1 MOL         0.0000
     13 C13        -3.5394   -0.7331    6.7629 C.2       1 MOL         0.0000
     14 C14        -6.2816    0.2612    8.3814 C.2       1 MOL         0.0000
     15 C15        -5.9592    5.4437    4.1642 C.3       1 MOL         0.0000
     16 C16        -4.8038    5.3636    5.1580 C.3       1 MOL         0.0000
     17 C17        -5.4506    5.3079    2.7317 C.3       1 MOL         0.0000
     18 C18        -3.8450   -2.2516   14.3040 C.3       1 MOL         0.0000
     19 C19        -3.9786    4.0982    4.9490 C.3       1 MOL         0.0000
     20 C20        -4.6173    4.0426    2.5567 C.3       1 MOL         0.0000
     21 C21        -4.9446   -2.7218   13.3644 C.3       1 MOL         0.0000
     22 C22        -2.9979   -1.1467   13.6920 C.3       1 MOL         0.0000
     23 C23        -3.3988    0.2730    7.9013 C.3       1 MOL         0.0000
     24 N1         -3.4928    4.0440    3.5385 N.pl3     1 MOL         0.0000
     25 O1         -6.6094    1.5054    8.3652 O.co2     1 MOL         0.0000
     26 O2         -3.5841   -1.9437    6.9711 O.2       1 MOL         0.0000
     27 O3         -6.7388   -0.5884    7.5299 O.co2     1 MOL         0.0000
     28 O4         -1.1609    3.1295    4.1673 O.2       1 MOL         0.0000
     29 O5         -1.9905    2.8641    1.8031 O.2       1 MOL         0.0000
     30 O6         -5.6102   -1.6147   12.7567 O.3       1 MOL         0.0000
     31 O7         -2.6506   -1.4531   12.3416 O.3       1 MOL         0.0000
     32 S1         -2.2551    2.8976    3.2348 S.o2      1 MOL         0.0000
     33 H1         -4.9773   -1.0537    2.3480 H         1 MOL         0.0000
     34 H2         -4.8451   -1.8813    4.6722 H         1 MOL         0.0000
     35 H3         -3.8423    1.0460    1.7059 H         1 MOL         0.0000
     36 H4         -6.9284   -0.6939   10.7959 H         1 MOL         0.0000
     37 H5         -2.4213    1.5128    5.7420 H         1 MOL         0.0000
     38 H6         -2.0279   -0.6279   10.0254 H         1 MOL         0.0000
     39 H7         -6.6815    4.6455    4.3751 H         1 MOL         0.0000
     40 H8         -6.4874    6.3963    4.2831 H         1 MOL         0.0000
     41 H9         -4.1610    6.2444    5.0351 H         1 MOL         0.0000
     42 H10        -5.1930    5.3882    6.1819 H         1 MOL         0.0000
     43 H11        -6.2980    5.2930    2.0373 H         1 MOL         0.0000
     44 H12        -4.8418    6.1854    2.4804 H         1 MOL         0.0000
     45 H13        -4.2792   -1.8783   15.2386 H         1 MOL         0.0000
     46 H14        -3.2168   -3.1125   14.5608 H         1 MOL         0.0000
     47 H15        -3.1206    4.1160    5.6298 H         1 MOL         0.0000
     48 H16        -4.5759    3.2056    5.1680 H         1 MOL         0.0000
     49 H17        -5.2342    3.1485    2.7032 H         1 MOL         0.0000
     50 H18        -4.2126    4.0209    1.5390 H         1 MOL         0.0000
     51 H19        -4.5619   -3.4180   12.6056 H         1 MOL         0.0000
     52 H20        -5.6928   -3.2803   13.9376 H         1 MOL         0.0000
     53 H21        -3.4924   -0.1682   13.7610 H         1 MOL         0.0000
     54 H22        -2.0643   -1.0548   14.2579 H         1 MOL         0.0000
     55 H23        -3.8986    1.2077    7.6022 H         1 MOL         0.0000
     56 H24        -2.3292    0.5011    8.0325 H         1 MOL         0.0000
@<TRIPOS>BOND
     1    1    2 ar
     2    1    3 ar
     3    2    7 ar
     4    3   12 ar
     5    4    8 ar
     6    4   10 ar
     7    5    7 ar
     8    5   12 ar
     9    6    9 ar
    10    6   11 ar
    11    7   13 1
    12    8    9 ar
    13    8   14 1
    14    9   23 1
    15   10   11 ar
    16   10   30 1
    17   11   31 1
    18   12   32 1
    19   13   23 1
    20   13   26 2
    21   14   25 1
    22   14   27 2
    23   15   16 1
    24   15   17 1
    25   16   19 1
    26   17   20 1
    27   18   21 1
    28   18   22 1
    29   19   24 1
    30   20   24 1
    31   21   30 1
    32   22   31 1
    33   24   32 1
    34   28   32 2
    35   29   32 2
    36    1   33 1
    37    2   34 1
    38    3   35 1
    39    4   36 1
    40    5   37 1
    41    6   38 1
    42   15   39 1
    43   15   40 1
    44   16   41 1
    45   16   42 1
    46   17   43 1
    47   17   44 1
    48   18   45 1
    49   18   46 1
    50   19   47 1
    51   19   48 1
    52   20   49 1
    53   20   50 1
    54   21   51 1
    55   21   52 1
    56   22   53 1
    57   22   54 1
    58   23   55 1
    59   23   56 1
