AVX17384_0
  -OEChem-04011314533D

 44 46  0     1  0  0  0  0  0999 V2000
   10.5101   -1.0827    3.2322 C   0  0  0  0  0  0  0  0  0  0  0  0
   10.1737   -1.2387    1.8875 C   0  0  0  0  0  0  0  0  0  0  0  0
    9.5734   -0.5719    4.1307 C   0  0  0  0  0  0  0  0  0  0  0  0
    8.9006   -0.8837    1.4414 C   0  0  0  0  0  0  0  0  0  0  0  0
    6.4116    0.4147    0.6123 C   0  0  0  0  0  0  0  0  0  0  0  0
    8.3004   -0.2168    3.6846 C   0  0  0  0  0  0  0  0  0  0  0  0
    5.0559    0.6340    0.5921 C   0  0  0  0  0  0  0  0  0  0  0  0
    7.9640   -0.3727    2.3399 C   0  0  0  0  0  0  0  0  0  0  0  0
    4.6250    0.2938    1.8884 C   0  0  0  0  0  0  0  0  0  0  0  0
    7.3490    0.3131    4.6547 C   0  0  0  0  0  0  0  0  0  0  0  0
    1.7412    4.2125    3.9162 C   0  0  0  0  0  0  0  0  0  0  0  0
    1.7080    3.7220    5.3582 C   0  0  0  0  0  0  0  0  0  0  0  0
    1.0306    3.2185    3.0015 C   0  0  0  0  0  0  0  0  0  0  0  0
    2.2171    2.2906    5.4502 C   0  0  0  0  0  0  0  0  0  0  0  0
    1.5544    1.7980    3.2095 C   0  0  2  0  0  0  0  0  0  0  0  0
    4.2449    1.1167   -0.5381 C   0  0  0  0  0  0  0  0  0  0  0  0
    3.2289    0.3417    2.4362 C   0  0  0  0  0  0  0  0  0  0  0  0
    5.6259   -0.1109    2.6748 N   0  0  0  0  0  0  0  0  0  0  0  0
    6.6991   -0.0266    1.8703 N   0  0  0  0  0  0  0  0  0  0  0  0
    7.3290    1.6890    4.8509 N   0  0  0  0  0  0  0  0  0  0  0  0
    6.5959   -0.4380    5.2948 O   0  0  0  0  0  0  0  0  0  0  0  0
    1.4802    1.4248    4.5874 O   0  0  0  0  0  0  0  0  0  0  0  0
    2.8753    1.6940    2.6863 O   0  0  0  0  0  0  0  0  0  0  0  0
   11.5012   -1.3591    3.5799 H   0  0  0  0  0  0  0  0  0  0  0  0
   10.9030   -1.6368    1.1882 H   0  0  0  0  0  0  0  0  0  0  0  0
    9.8478   -0.4558    5.1762 H   0  0  0  0  0  0  0  0  0  0  0  0
    8.6534   -1.0110    0.3899 H   0  0  0  0  0  0  0  0  0  0  0  0
    7.1733    0.5343   -0.1472 H   0  0  0  0  0  0  0  0  0  0  0  0
    1.2658    5.1968    3.8424 H   0  0  0  0  0  0  0  0  0  0  0  0
    2.7824    4.3333    3.5934 H   0  0  0  0  0  0  0  0  0  0  0  0
    2.3038    4.3806    5.9987 H   0  0  0  0  0  0  0  0  0  0  0  0
    0.6720    3.7588    5.7171 H   0  0  0  0  0  0  0  0  0  0  0  0
   -0.0413    3.2420    3.2331 H   0  0  0  0  0  0  0  0  0  0  0  0
    1.1598    3.5278    1.9585 H   0  0  0  0  0  0  0  0  0  0  0  0
    3.2840    2.2314    5.2061 H   0  0  0  0  0  0  0  0  0  0  0  0
    2.0963    1.9198    6.4731 H   0  0  0  0  0  0  0  0  0  0  0  0
    0.9204    1.1047    2.6458 H   0  0  0  0  0  0  0  0  0  0  0  0
    3.8717    0.2780   -1.1509 H   0  0  0  0  0  0  0  0  0  0  0  0
    3.3680    1.6996   -0.2038 H   0  0  0  0  0  0  0  0  0  0  0  0
    4.8160    1.7871   -1.2053 H   0  0  0  0  0  0  0  0  0  0  0  0
    2.5145   -0.0888    1.7262 H   0  0  0  0  0  0  0  0  0  0  0  0
    3.1591   -0.2264    3.3700 H   0  0  0  0  0  0  0  0  0  0  0  0
    7.9659    2.2757    4.3228 H   0  0  0  0  0  0  0  0  0  0  0  0
    6.6898    2.1182    5.5121 H   0  0  0  0  0  0  0  0  0  0  0  0
  1  2  2  0  0  0  0
  1  3  1  0  0  0  0
  2  4  1  0  0  0  0
  3  6  2  0  0  0  0
  4  8  2  0  0  0  0
  5  7  2  0  0  0  0
  5 19  1  0  0  0  0
  6  8  1  0  0  0  0
  6 10  1  0  0  0  0
  7  9  1  0  0  0  0
  7 16  1  0  0  0  0
  8 19  1  0  0  0  0
  9 17  1  0  0  0  0
  9 18  2  0  0  0  0
 10 20  1  0  0  0  0
 10 21  2  0  0  0  0
 11 12  1  0  0  0  0
 11 13  1  0  0  0  0
 12 14  1  0  0  0  0
 13 15  1  0  0  0  0
 14 22  1  0  0  0  0
 15 22  1  0  0  0  0
 15 23  1  0  0  0  0
 17 23  1  0  0  0  0
 18 19  1  0  0  0  0
  1 24  1  0  0  0  0
  2 25  1  0  0  0  0
  3 26  1  0  0  0  0
  4 27  1  0  0  0  0
  5 28  1  0  0  0  0
 11 29  1  0  0  0  0
 11 30  1  0  0  0  0
 12 31  1  0  0  0  0
 12 32  1  0  0  0  0
 13 33  1  0  0  0  0
 13 34  1  0  0  0  0
 14 35  1  0  0  0  0
 14 36  1  0  0  0  0
 15 37  1  0  0  0  0
 16 38  1  0  0  0  0
 16 39  1  0  0  0  0
 16 40  1  0  0  0  0
 17 41  1  0  0  0  0
 17 42  1  0  0  0  0
 20 43  1  0  0  0  0
 20 44  1  0  0  0  0
M  END
$$$$
