@<TRIPOS>MOLECULE
AVX17627_0
   49    52     0     0     0
SMALL
NO_CHARGES

@<TRIPOS>ATOM
      1 C1         -4.5930   -7.0014   -1.5526 C.ar      1 MOL         0.0000
      2 C2         -7.2381   -0.8202    1.0394 C.ar      1 MOL         0.0000
      3 C3         -5.3289   -5.8647   -1.8870 C.ar      1 MOL         0.0000
      4 C4         -3.5829   -6.9212   -0.5939 C.ar      1 MOL         0.0000
      5 C5         -6.8841   -1.8015    1.9653 C.ar      1 MOL         0.0000
      6 C6         -6.4607   -0.6257   -0.1023 C.ar      1 MOL         0.0000
      7 C7         -5.0548   -4.6477   -1.2629 C.ar      1 MOL         0.0000
      8 C8         -3.3087   -5.7043    0.0302 C.ar      1 MOL         0.0000
      9 C9         -5.7525   -2.5881    1.7497 C.ar      1 MOL         0.0000
     10 C10        -5.3292   -1.4123   -0.3180 C.ar      1 MOL         0.0000
     11 C11        -0.5619    1.8212    0.9722 C.ar      1 MOL         0.0000
     12 C12        -1.0003    3.1427    1.0858 C.ar      1 MOL         0.0000
     13 C13        -0.6347    1.9606   -1.4575 C.ar      1 MOL         0.0000
     14 C14        -4.0446   -4.5675   -0.3043 C.ar      1 MOL         0.0000
     15 C15        -4.9751   -2.3936    0.6080 C.ar      1 MOL         0.0000
     16 C16        -0.3801    1.2336   -0.2921 C.ar      1 MOL         0.0000
     17 C17        -1.2446    3.8387   -0.0803 C.ar      1 MOL         0.0000
     18 C18        -1.0666    3.2636   -1.3178 C.ar      1 MOL         0.0000
     19 C19        -0.4513    1.3690   -2.7925 C.2       1 MOL         0.0000
     20 C20        -1.8158   -1.6796    0.2331 C.2       1 MOL         0.0000
     21 C21        -1.7463    5.2988   -1.5962 C.3       1 MOL         0.0000
     22 C22         0.0907   -0.1835   -0.3620 C.3       1 MOL         0.0000
     23 C23        -3.7464   -3.2470    0.3733 C.3       1 MOL         0.0000
     24 N1         -0.9700   -1.0930   -0.7087 N.am      1 MOL         0.0000
     25 N2         -2.7504   -2.5151   -0.3733 N.am      1 MOL         0.0000
     26 O1          0.6968    1.4773   -3.3660 O.co2     1 MOL         0.0000
     27 O2         -1.4448    0.7626   -3.3437 O.co2     1 MOL         0.0000
     28 O3         -1.7454   -1.4829    1.4455 O.2       1 MOL         0.0000
     29 O4         -1.6735    5.1273   -0.1660 O.3       1 MOL         0.0000
     30 O5         -1.3620    4.1200   -2.3332 O.3       1 MOL         0.0000
     31 H1         -4.8075   -7.9492   -2.0377 H         1 MOL         0.0000
     32 H2         -8.1199   -0.2087    1.2068 H         1 MOL         0.0000
     33 H3         -6.1162   -5.9272   -2.6327 H         1 MOL         0.0000
     34 H4         -3.0104   -7.8062   -0.3325 H         1 MOL         0.0000
     35 H5         -7.4899   -1.9539    2.8538 H         1 MOL         0.0000
     36 H6         -6.7366    0.1375   -0.8240 H         1 MOL         0.0000
     37 H7         -5.6332   -3.7672   -1.5300 H         1 MOL         0.0000
     38 H8         -2.5198   -5.6512    0.7758 H         1 MOL         0.0000
     39 H9         -5.4842   -3.3502    2.4766 H         1 MOL         0.0000
     40 H10        -4.7294   -1.2535   -1.2103 H         1 MOL         0.0000
     41 H11        -0.3611    1.2484    1.8745 H         1 MOL         0.0000
     42 H12        -1.1418    3.5995    2.0586 H         1 MOL         0.0000
     43 H13        -2.7758    5.5611   -1.8661 H         1 MOL         0.0000
     44 H14        -1.0854    6.1241   -1.8849 H         1 MOL         0.0000
     45 H15         0.8844   -0.2971   -1.1118 H         1 MOL         0.0000
     46 H16         0.5079   -0.5137    0.5979 H         1 MOL         0.0000
     47 H17        -3.2741   -3.4391    1.3456 H         1 MOL         0.0000
     48 H18        -1.1100   -1.3196   -1.6908 H         1 MOL         0.0000
     49 H19        -2.7632   -2.5805   -1.3863 H         1 MOL         0.0000
@<TRIPOS>BOND
     1    1    3 ar
     2    1    4 ar
     3    2    5 ar
     4    2    6 ar
     5    3    7 ar
     6    4    8 ar
     7    5    9 ar
     8    6   10 ar
     9    7   14 ar
    10    8   14 ar
    11    9   15 ar
    12   10   15 ar
    13   11   12 ar
    14   11   16 ar
    15   12   17 ar
    16   13   16 ar
    17   13   18 ar
    18   13   19 1
    19   14   23 1
    20   15   23 1
    21   16   22 1
    22   17   18 ar
    23   17   29 1
    24   18   30 1
    25   19   26 1
    26   19   27 2
    27   20   24 am
    28   20   25 am
    29   20   28 2
    30   21   29 1
    31   21   30 1
    32   22   24 1
    33   23   25 1
    34    1   31 1
    35    2   32 1
    36    3   33 1
    37    4   34 1
    38    5   35 1
    39    6   36 1
    40    7   37 1
    41    8   38 1
    42    9   39 1
    43   10   40 1
    44   11   41 1
    45   12   42 1
    46   21   43 1
    47   21   44 1
    48   22   45 1
    49   22   46 1
    50   23   47 1
    51   24   48 1
    52   25   49 1
