@<TRIPOS>MOLECULE
AVX17557_3
   59    62     0     0     0
SMALL
NO_CHARGES

@<TRIPOS>ATOM
      1 C1          0.8227    2.4972    0.7613 C.ar      1 MOL         0.0000
      2 C2         -0.4669    2.5713    0.2131 C.ar      1 MOL         0.0000
      3 C3          1.5390    1.2996    0.7338 C.ar      1 MOL         0.0000
      4 C4         -1.0594    1.4490   -0.3711 C.ar      1 MOL         0.0000
      5 C5         -2.4796   -3.8559   -1.4741 C.ar      1 MOL         0.0000
      6 C6         -2.8336   -4.8738   -2.3629 C.ar      1 MOL         0.0000
      7 C7         -3.0745   -2.1579   -3.1146 C.ar      1 MOL         0.0000
      8 C8          0.9389    0.1885    0.1645 C.ar      1 MOL         0.0000
      9 C9         -0.3497    0.2584   -0.3845 C.ar      1 MOL         0.0000
     10 C10        -2.5995   -2.5057   -1.8477 C.ar      1 MOL         0.0000
     11 C11        -3.2998   -4.5036   -3.6076 C.ar      1 MOL         0.0000
     12 C12        -3.4172   -3.1820   -3.9733 C.ar      1 MOL         0.0000
     13 C13        -3.2102   -0.7525   -3.5295 C.2       1 MOL         0.0000
     14 C14         0.1175   -3.7717    1.5112 C.2       1 MOL         0.0000
     15 C15         1.5227   -1.1831   -0.0012 C.3       1 MOL         0.0000
     16 C16        -4.0662   -4.4145   -5.6292 C.3       1 MOL         0.0000
     17 C17        -0.7357   -1.0684   -0.9834 C.3       1 MOL         0.0000
     18 C18         0.2556   -2.0223   -0.2630 C.3       1 MOL         0.0000
     19 C19        -2.2053   -1.4449   -0.8546 C.3       1 MOL         0.0000
     20 C20        -0.6074   -4.0688    2.8138 C.3       1 MOL         0.0000
     21 C21        -0.2265   -5.4103    3.4384 C.3       1 MOL         0.0000
     22 C22        -0.9700   -5.6744    4.7525 C.3       1 MOL         0.0000
     23 C23        -0.5483   -7.0134    5.3654 C.3       1 MOL         0.0000
     24 C24        -1.2488   -7.3251    6.6822 C.3       1 MOL         0.0000
     25 N1         -0.2619   -2.5453    0.9850 N.am      1 MOL         0.0000
     26 N2         -2.7166   -7.3950    6.4910 N.4       1 MOL         0.0000
     27 O1         -4.3230   -0.1443   -3.3044 O.co2     1 MOL         0.0000
     28 O2         -2.2119   -0.1767   -4.1046 O.co2     1 MOL         0.0000
     29 O3          0.9194   -4.5458    0.9959 O.2       1 MOL         0.0000
     30 O4         -3.6905   -5.3507   -4.5983 O.3       1 MOL         0.0000
     31 O5         -3.8957   -3.0364   -5.2389 O.3       1 MOL         0.0000
     32 H1          1.2689    3.3828    1.2056 H         1 MOL         0.0000
     33 H2         -1.0066    3.5142    0.2372 H         1 MOL         0.0000
     34 H3          2.5395    1.2462    1.1494 H         1 MOL         0.0000
     35 H4         -2.0502    1.5210   -0.8061 H         1 MOL         0.0000
     36 H5         -2.1094   -4.1181   -0.4858 H         1 MOL         0.0000
     37 H6         -2.7428   -5.9160   -2.0788 H         1 MOL         0.0000
     38 H7          2.1846   -1.1908   -0.8739 H         1 MOL         0.0000
     39 H8          2.0709   -1.5091    0.8880 H         1 MOL         0.0000
     40 H9         -3.4531   -4.6059   -6.5173 H         1 MOL         0.0000
     41 H10        -5.1190   -4.5789   -5.8858 H         1 MOL         0.0000
     42 H11        -0.4715   -1.0323   -2.0492 H         1 MOL         0.0000
     43 H12         0.4802   -2.8981   -0.8811 H         1 MOL         0.0000
     44 H13        -2.8281   -0.5541   -0.9974 H         1 MOL         0.0000
     45 H14        -2.4080   -1.7972    0.1636 H         1 MOL         0.0000
     46 H15        -0.4257   -3.2542    3.5245 H         1 MOL         0.0000
     47 H16        -1.6806   -4.0758    2.5869 H         1 MOL         0.0000
     48 H17        -0.4743   -6.2066    2.7257 H         1 MOL         0.0000
     49 H18         0.8561   -5.4583    3.6062 H         1 MOL         0.0000
     50 H19        -2.0506   -5.6821    4.5652 H         1 MOL         0.0000
     51 H20        -0.7703   -4.8614    5.4582 H         1 MOL         0.0000
     52 H21        -0.7805   -7.8187    4.6576 H         1 MOL         0.0000
     53 H22         0.5390   -7.0256    5.5110 H         1 MOL         0.0000
     54 H23        -0.9328   -8.2849    7.1012 H         1 MOL         0.0000
     55 H24        -1.0684   -6.5332    7.4151 H         1 MOL         0.0000
     56 H25        -0.9358   -1.9865    1.5002 H         1 MOL         0.0000
     57 H26        -2.9563   -7.4538    5.4949 H         1 MOL         0.0000
     58 H27        -3.1781   -6.5635    6.8771 H         1 MOL         0.0000
     59 H28        -3.1104   -8.2193    6.9587 H         1 MOL         0.0000
@<TRIPOS>BOND
     1    1    2 ar
     2    1    3 ar
     3    2    4 ar
     4    3    8 ar
     5    4    9 ar
     6    5    6 ar
     7    5   10 ar
     8    6   11 ar
     9    7   10 ar
    10    7   12 ar
    11    7   13 1
    12    8    9 ar
    13    8   15 1
    14    9   17 1
    15   10   19 1
    16   11   12 ar
    17   11   30 1
    18   12   31 1
    19   13   27 1
    20   13   28 2
    21   14   20 1
    22   14   25 am
    23   14   29 2
    24   15   18 1
    25   16   30 1
    26   16   31 1
    27   17   18 1
    28   17   19 1
    29   18   25 1
    30   20   21 1
    31   21   22 1
    32   22   23 1
    33   23   24 1
    34   24   26 1
    35    1   32 1
    36    2   33 1
    37    3   34 1
    38    4   35 1
    39    5   36 1
    40    6   37 1
    41   15   38 1
    42   15   39 1
    43   16   40 1
    44   16   41 1
    45   17   42 1
    46   18   43 1
    47   19   44 1
    48   19   45 1
    49   20   46 1
    50   20   47 1
    51   21   48 1
    52   21   49 1
    53   22   50 1
    54   22   51 1
    55   23   52 1
    56   23   53 1
    57   24   54 1
    58   24   55 1
    59   25   56 1
    60   26   57 1
    61   26   58 1
    62   26   59 1
