AVX17542_0
  -OEChem-04011314533D

 57 58  0     1  0  0  0  0  0999 V2000
   -2.2653    1.6460   -2.7314 C   0  0  0  0  0  0  0  0  0  0  0  0
   -2.4033    2.8517   -3.4232 C   0  0  0  0  0  0  0  0  0  0  0  0
   -3.1942    2.6467   -0.7155 C   0  0  0  0  0  0  0  0  0  0  0  0
   -2.6585    1.5440   -1.3854 C   0  0  0  0  0  0  0  0  0  0  0  0
   -2.9350    3.9254   -2.7388 C   0  0  0  0  0  0  0  0  0  0  0  0
   -3.3199    3.8256   -1.4213 C   0  0  0  0  0  0  0  0  0  0  0  0
   -3.6142    2.5657    0.6927 C   0  0  0  0  0  0  0  0  0  0  0  0
    2.1950    0.6522   -0.8584 C   0  0  0  0  0  0  0  0  0  0  0  0
   -3.7025    5.8446   -2.0989 C   0  0  0  0  0  0  0  0  0  0  0  0
   -1.1429   -3.0784   -2.0429 C   0  0  0  0  0  0  0  0  0  0  0  0
   -1.5340   -4.1008    0.2070 C   0  0  0  0  0  0  0  0  0  0  0  0
   -2.4894    0.2190   -0.6808 C   0  0  0  0  0  0  0  0  0  0  0  0
    3.5750    0.1456   -0.4714 C   0  0  0  0  0  0  0  0  0  0  0  0
    4.6468    0.4105   -1.5276 C   0  0  0  0  0  0  0  0  0  0  0  0
    6.0372   -0.0453   -1.0751 C   0  0  0  0  0  0  0  0  0  0  0  0
   -0.9360   -1.6641    0.0717 C   0  0  0  0  0  0  0  0  0  0  0  0
   -0.1280    0.7815    0.0352 C   0  0  0  0  0  0  0  0  0  0  0  0
    7.0724    0.2060   -2.1620 C   0  0  0  0  0  0  0  0  0  0  0  0
   -1.6703   -2.8251   -0.6302 C   0  0  0  0  0  0  0  0  0  0  0  0
   -1.0240   -0.2830   -0.6244 C   0  0  2  0  0  0  0  0  0  0  0  0
    1.2517    0.3901    0.1308 N   0  0  0  0  0  0  0  0  0  0  0  0
    8.4075   -0.2067   -1.6662 N   0  3  0  0  0  0  0  0  0  0  0  0
   -4.8279    2.2269    0.9590 O   0  5  0  0  0  0  0  0  0  0  0  0
   -2.7544    2.8367    1.6126 O   0  0  0  0  0  0  0  0  0  0  0  0
    1.9648    1.2389   -1.9122 O   0  0  0  0  0  0  0  0  0  0  0  0
   -3.1438    5.1710   -3.2454 O   0  0  0  0  0  0  0  0  0  0  0  0
   -3.8176    4.9964   -0.9380 O   0  0  0  0  0  0  0  0  0  0  0  0
   -1.8496    0.7827   -3.2457 H   0  0  0  0  0  0  0  0  0  0  0  0
   -2.1015    2.9346   -4.4610 H   0  0  0  0  0  0  0  0  0  0  0  0
   -3.0629    6.6984   -1.8475 H   0  0  0  0  0  0  0  0  0  0  0  0
   -4.6994    6.2167   -2.3619 H   0  0  0  0  0  0  0  0  0  0  0  0
   -0.0735   -3.3144   -2.0311 H   0  0  0  0  0  0  0  0  0  0  0  0
   -1.6688   -3.9188   -2.5089 H   0  0  0  0  0  0  0  0  0  0  0  0
   -1.2927   -2.2070   -2.6871 H   0  0  0  0  0  0  0  0  0  0  0  0
   -0.4820   -4.3875    0.3109 H   0  0  0  0  0  0  0  0  0  0  0  0
   -2.0607   -4.9355   -0.2674 H   0  0  0  0  0  0  0  0  0  0  0  0
   -1.9486   -3.9643    1.2116 H   0  0  0  0  0  0  0  0  0  0  0  0
   -3.1137   -0.5148   -1.2083 H   0  0  0  0  0  0  0  0  0  0  0  0
   -2.9042    0.2839    0.3335 H   0  0  0  0  0  0  0  0  0  0  0  0
    3.5189   -0.9264   -0.2486 H   0  0  0  0  0  0  0  0  0  0  0  0
    3.8558    0.6611    0.4553 H   0  0  0  0  0  0  0  0  0  0  0  0
    4.3816   -0.0813   -2.4712 H   0  0  0  0  0  0  0  0  0  0  0  0
    4.6766    1.4888   -1.7279 H   0  0  0  0  0  0  0  0  0  0  0  0
    6.3199    0.4943   -0.1625 H   0  0  0  0  0  0  0  0  0  0  0  0
    6.0208   -1.1120   -0.8226 H   0  0  0  0  0  0  0  0  0  0  0  0
   -1.3214   -1.5728    1.0960 H   0  0  0  0  0  0  0  0  0  0  0  0
    0.1205   -1.9437    0.1722 H   0  0  0  0  0  0  0  0  0  0  0  0
   -0.1586    1.7146   -0.5378 H   0  0  0  0  0  0  0  0  0  0  0  0
   -0.4714    1.0181    1.0466 H   0  0  0  0  0  0  0  0  0  0  0  0
    7.1446    1.2660   -2.4227 H   0  0  0  0  0  0  0  0  0  0  0  0
    6.8724   -0.3824   -3.0624 H   0  0  0  0  0  0  0  0  0  0  0  0
   -2.7397   -2.5943   -0.6954 H   0  0  0  0  0  0  0  0  0  0  0  0
   -0.6696   -0.3978   -1.6566 H   0  0  0  0  0  0  0  0  0  0  0  0
    1.5470   -0.1170    0.9644 H   0  0  0  0  0  0  0  0  0  0  0  0
    8.5987    0.1990   -0.7436 H   0  0  0  0  0  0  0  0  0  0  0  0
    9.1481    0.1016   -2.3059 H   0  0  0  0  0  0  0  0  0  0  0  0
    8.4687   -1.2273   -1.5810 H   0  0  0  0  0  0  0  0  0  0  0  0
  1  2  2  0  0  0  0
  1  4  1  0  0  0  0
  2  5  1  0  0  0  0
  3  4  2  0  0  0  0
  3  6  1  0  0  0  0
  3  7  1  0  0  0  0
  4 12  1  0  0  0  0
  5  6  2  0  0  0  0
  5 26  1  0  0  0  0
  6 27  1  0  0  0  0
  7 23  1  0  0  0  0
  7 24  2  0  0  0  0
  8 13  1  0  0  0  0
  8 21  1  0  0  0  0
  8 25  2  0  0  0  0
  9 26  1  0  0  0  0
  9 27  1  0  0  0  0
 10 19  1  0  0  0  0
 11 19  1  0  0  0  0
 12 20  1  0  0  0  0
 13 14  1  0  0  0  0
 14 15  1  0  0  0  0
 15 18  1  0  0  0  0
 16 19  1  0  0  0  0
 16 20  1  0  0  0  0
 17 20  1  0  0  0  0
 17 21  1  0  0  0  0
 18 22  1  0  0  0  0
  1 28  1  0  0  0  0
  2 29  1  0  0  0  0
  9 30  1  0  0  0  0
  9 31  1  0  0  0  0
 10 32  1  0  0  0  0
 10 33  1  0  0  0  0
 10 34  1  0  0  0  0
 11 35  1  0  0  0  0
 11 36  1  0  0  0  0
 11 37  1  0  0  0  0
 12 38  1  0  0  0  0
 12 39  1  0  0  0  0
 13 40  1  0  0  0  0
 13 41  1  0  0  0  0
 14 42  1  0  0  0  0
 14 43  1  0  0  0  0
 15 44  1  0  0  0  0
 15 45  1  0  0  0  0
 16 46  1  0  0  0  0
 16 47  1  0  0  0  0
 17 48  1  0  0  0  0
 17 49  1  0  0  0  0
 18 50  1  0  0  0  0
 18 51  1  0  0  0  0
 19 52  1  0  0  0  0
 20 53  1  0  0  0  0
 21 54  1  0  0  0  0
 22 55  1  0  0  0  0
 22 56  1  0  0  0  0
 22 57  1  0  0  0  0
M  CHG  2  22   1  23  -1
M  END
$$$$
