AVX101118_1
  -OEChem-04011314503D

 65 68  0     1  0  0  0  0  0999 V2000
    8.4347   -4.1838    0.7961 C   0  0  0  0  0  0  0  0  0  0  0  0
    8.0021   -3.9065    2.0928 C   0  0  0  0  0  0  0  0  0  0  0  0
    7.6173   -3.8786   -0.2922 C   0  0  0  0  0  0  0  0  0  0  0  0
    6.7520   -3.3240    2.3013 C   0  0  0  0  0  0  0  0  0  0  0  0
    6.8207    1.2889    0.8894 C   0  0  0  0  0  0  0  0  0  0  0  0
    7.2648    2.5170    0.3983 C   0  0  0  0  0  0  0  0  0  0  0  0
    6.3671   -3.2961   -0.0836 C   0  0  0  0  0  0  0  0  0  0  0  0
    4.9965    2.3954    2.0269 C   0  0  0  0  0  0  0  0  0  0  0  0
    5.9344   -3.0188    1.2131 C   0  0  0  0  0  0  0  0  0  0  0  0
    5.6854    1.2276    1.6981 C   0  0  0  0  0  0  0  0  0  0  0  0
    6.5688    3.6838    0.7159 C   0  0  0  0  0  0  0  0  0  0  0  0
    5.4478    3.6255    1.5476 C   0  0  0  0  0  0  0  0  0  0  0  0
    5.5167   -2.9822   -1.2607 C   0  0  0  0  0  0  0  0  0  0  0  0
    3.8003    2.3272    2.8910 C   0  0  0  0  0  0  0  0  0  0  0  0
    3.8362    2.4160   -3.5415 C   0  0  0  0  0  0  0  0  0  0  0  0
    4.6603    2.0014   -2.3265 C   0  0  0  0  0  0  0  0  0  0  0  0
    2.9240    1.2875   -4.0122 C   0  0  0  0  0  0  0  0  0  0  0  0
    5.4463    0.7190   -2.5899 C   0  0  0  0  0  0  0  0  0  0  0  0
    3.7070    0.0038   -4.2783 C   0  0  0  0  0  0  0  0  0  0  0  0
    6.0798    5.9110    0.2839 C   0  0  0  0  0  0  0  0  0  0  0  0
    5.4730    5.9426    1.6730 C   0  0  0  0  0  0  0  0  0  0  0  0
    4.5306   -0.4213   -3.0552 C   0  0  0  0  0  0  0  0  0  0  0  0
    3.1610   -0.4550    0.8575 C   0  0  0  0  0  0  0  0  0  0  0  0
    4.6003   -2.3960    1.4652 C   0  0  0  0  0  0  0  0  0  0  0  0
    5.2305   -0.1100    2.2029 C   0  0  0  0  0  0  0  0  0  0  0  0
    5.3456   -1.6760   -3.3632 C   0  0  0  0  0  0  0  0  0  0  0  0
    6.0490   -2.0920   -2.1970 N   0  0  0  0  0  0  0  0  0  0  0  0
    4.5581   -0.9440    1.1424 N   0  3  2  0  0  0  0  0  0  0  0  0
    2.6507    2.1716    2.3376 O   0  5  0  0  0  0  0  0  0  0  0  0
    4.4017   -3.4899   -1.3478 O   0  0  0  0  0  0  0  0  0  0  0  0
    3.9547    2.4265    4.1631 O   0  0  0  0  0  0  0  0  0  0  0  0
    7.0415    4.8566    0.1873 O   0  0  0  0  0  0  0  0  0  0  0  0
    4.7418    4.7389    1.9219 O   0  0  0  0  0  0  0  0  0  0  0  0
    9.4083   -4.6373    0.6331 H   0  0  0  0  0  0  0  0  0  0  0  0
    8.6390   -4.1446    2.9398 H   0  0  0  0  0  0  0  0  0  0  0  0
    7.9654   -4.1006   -1.2977 H   0  0  0  0  0  0  0  0  0  0  0  0
    6.4246   -3.1116    3.3157 H   0  0  0  0  0  0  0  0  0  0  0  0
    7.3646    0.3838    0.6318 H   0  0  0  0  0  0  0  0  0  0  0  0
    8.1449    2.5547   -0.2378 H   0  0  0  0  0  0  0  0  0  0  0  0
    3.2344    3.2981   -3.2952 H   0  0  0  0  0  0  0  0  0  0  0  0
    4.5099    2.7046   -4.3576 H   0  0  0  0  0  0  0  0  0  0  0  0
    5.3510    2.8087   -2.0576 H   0  0  0  0  0  0  0  0  0  0  0  0
    3.9948    1.8512   -1.4675 H   0  0  0  0  0  0  0  0  0  0  0  0
    2.1574    1.0959   -3.2513 H   0  0  0  0  0  0  0  0  0  0  0  0
    2.3989    1.5950   -4.9237 H   0  0  0  0  0  0  0  0  0  0  0  0
    6.2128    0.9164   -3.3504 H   0  0  0  0  0  0  0  0  0  0  0  0
    5.9756    0.4248   -1.6756 H   0  0  0  0  0  0  0  0  0  0  0  0
    3.0087   -0.7950   -4.5555 H   0  0  0  0  0  0  0  0  0  0  0  0
    4.3699    0.1585   -5.1394 H   0  0  0  0  0  0  0  0  0  0  0  0
    5.3153    5.7600   -0.4882 H   0  0  0  0  0  0  0  0  0  0  0  0
    6.5966    6.8526    0.0739 H   0  0  0  0  0  0  0  0  0  0  0  0
    6.2426    6.0509    2.4473 H   0  0  0  0  0  0  0  0  0  0  0  0
    4.7755    6.7810    1.7645 H   0  0  0  0  0  0  0  0  0  0  0  0
    3.8367   -0.6619   -2.2387 H   0  0  0  0  0  0  0  0  0  0  0  0
    2.5669   -0.5959    1.7624 H   0  0  0  0  0  0  0  0  0  0  0  0
    3.2247    0.6015    0.5902 H   0  0  0  0  0  0  0  0  0  0  0  0
    2.7624   -1.0458    0.0305 H   0  0  0  0  0  0  0  0  0  0  0  0
    3.8146   -2.8701    0.8628 H   0  0  0  0  0  0  0  0  0  0  0  0
    4.3064   -2.4878    2.5189 H   0  0  0  0  0  0  0  0  0  0  0  0
    6.0740   -0.6992    2.5785 H   0  0  0  0  0  0  0  0  0  0  0  0
    4.5099    0.0000    3.0205 H   0  0  0  0  0  0  0  0  0  0  0  0
    6.0546   -1.4452   -4.1470 H   0  0  0  0  0  0  0  0  0  0  0  0
    4.6736   -2.4633   -3.6766 H   0  0  0  0  0  0  0  0  0  0  0  0
    6.9633   -1.6698   -2.0083 H   0  0  0  0  0  0  0  0  0  0  0  0
    5.0975   -0.7998    0.2732 H   0  0  0  0  0  0  0  0  0  0  0  0
  1  2  2  0  0  0  0
  1  3  1  0  0  0  0
  2  4  1  0  0  0  0
  3  7  2  0  0  0  0
  4  9  2  0  0  0  0
  5  6  1  0  0  0  0
  5 10  2  0  0  0  0
  6 11  2  0  0  0  0
  7  9  1  0  0  0  0
  7 13  1  0  0  0  0
  8 10  1  0  0  0  0
  8 12  2  0  0  0  0
  8 14  1  0  0  0  0
  9 24  1  0  0  0  0
 10 25  1  0  0  0  0
 11 12  1  0  0  0  0
 11 32  1  0  0  0  0
 12 33  1  0  0  0  0
 13 27  1  0  0  0  0
 13 30  2  0  0  0  0
 14 29  1  0  0  0  0
 14 31  2  0  0  0  0
 15 16  1  0  0  0  0
 15 17  1  0  0  0  0
 16 18  1  0  0  0  0
 17 19  1  0  0  0  0
 18 22  1  0  0  0  0
 19 22  1  0  0  0  0
 20 21  1  0  0  0  0
 20 32  1  0  0  0  0
 21 33  1  0  0  0  0
 22 26  1  0  0  0  0
 23 28  1  0  0  0  0
 24 28  1  0  0  0  0
 25 28  1  0  0  0  0
 26 27  1  0  0  0  0
  1 34  1  0  0  0  0
  2 35  1  0  0  0  0
  3 36  1  0  0  0  0
  4 37  1  0  0  0  0
  5 38  1  0  0  0  0
  6 39  1  0  0  0  0
 15 40  1  0  0  0  0
 15 41  1  0  0  0  0
 16 42  1  0  0  0  0
 16 43  1  0  0  0  0
 17 44  1  0  0  0  0
 17 45  1  0  0  0  0
 18 46  1  0  0  0  0
 18 47  1  0  0  0  0
 19 48  1  0  0  0  0
 19 49  1  0  0  0  0
 20 50  1  0  0  0  0
 20 51  1  0  0  0  0
 21 52  1  0  0  0  0
 21 53  1  0  0  0  0
 22 54  1  0  0  0  0
 23 55  1  0  0  0  0
 23 56  1  0  0  0  0
 23 57  1  0  0  0  0
 24 58  1  0  0  0  0
 24 59  1  0  0  0  0
 25 60  1  0  0  0  0
 25 61  1  0  0  0  0
 26 62  1  0  0  0  0
 26 63  1  0  0  0  0
 27 64  1  0  0  0  0
 28 65  1  0  0  0  0
M  CHG  2  28   1  29  -1
M  END
$$$$
