@<TRIPOS>MOLECULE
AVX17680_0
   57    58     0     0     0
SMALL
NO_CHARGES

@<TRIPOS>ATOM
      1 C1         -1.1571   -3.0776    0.8666 C.ar      1 MOL         0.0000
      2 C2         -1.1150   -4.1476   -0.0305 C.ar      1 MOL         0.0000
      3 C3         -2.4825   -1.7634   -0.6968 C.ar      1 MOL         0.0000
      4 C4         -1.8370   -1.8923    0.5353 C.ar      1 MOL         0.0000
      5 C5         -1.7604   -3.9947   -1.2403 C.ar      1 MOL         0.0000
      6 C6         -2.4260   -2.8346   -1.5646 C.ar      1 MOL         0.0000
      7 C7         -3.2017   -0.5339   -1.0670 C.2       1 MOL         0.0000
      8 C8          2.0596   -0.4101   -0.3157 C.2       1 MOL         0.0000
      9 C9         -2.6083   -4.2177   -3.2185 C.3       1 MOL         0.0000
     10 C10        -1.3516    2.4045    4.6729 C.3       1 MOL         0.0000
     11 C11        -1.8541   -0.7635    1.5389 C.3       1 MOL         0.0000
     12 C12         2.3989   -1.1180   -1.6174 C.3       1 MOL         0.0000
     13 C13        -1.3948    1.7154    3.3168 C.3       1 MOL         0.0000
     14 C14         3.5068   -2.1614   -1.4804 C.3       1 MOL         0.0000
     15 C15         3.1462   -3.2683   -0.4835 C.3       1 MOL         0.0000
     16 C16         4.2857   -4.2834   -0.3503 C.3       1 MOL         0.0000
     17 C17        -0.4663    0.4980    3.2808 C.3       1 MOL         0.0000
     18 C18         0.1425    0.6943    0.8317 C.3       1 MOL         0.0000
     19 C19         3.9871   -5.4040    0.6381 C.3       1 MOL         0.0000
     20 C20        -0.4515   -0.2292    1.9151 C.3       1 MOL         0.0000
     21 N1          0.7286   -0.0200   -0.2795 N.am      1 MOL         0.0000
     22 N2          2.7906   -6.1696    0.2164 N.4       1 MOL         0.0000
     23 O1         -4.4512   -0.4336   -0.7711 O.co2     1 MOL         0.0000
     24 O2         -2.5582    0.4015   -1.6751 O.co2     1 MOL         0.0000
     25 O3          2.8831   -0.2013    0.5709 O.2       1 MOL         0.0000
     26 O4         -1.8270   -4.9234   -2.2328 O.3       1 MOL         0.0000
     27 O5         -2.9923   -2.8916   -2.8007 O.3       1 MOL         0.0000
     28 H1         -0.6575   -3.1701    1.8280 H         1 MOL         0.0000
     29 H2         -0.5920   -5.0633    0.2210 H         1 MOL         0.0000
     30 H3         -2.0212   -4.1386   -4.1407 H         1 MOL         0.0000
     31 H4         -3.5156   -4.7963   -3.4272 H         1 MOL         0.0000
     32 H5         -0.3346    2.7277    4.9172 H         1 MOL         0.0000
     33 H6         -2.0050    3.2827    4.6872 H         1 MOL         0.0000
     34 H7         -1.6869    1.7184    5.4570 H         1 MOL         0.0000
     35 H8         -2.4817    0.0574    1.1691 H         1 MOL         0.0000
     36 H9         -2.3679   -1.1426    2.4302 H         1 MOL         0.0000
     37 H10         1.4925   -1.5787   -2.0272 H         1 MOL         0.0000
     38 H11         2.7253   -0.3456   -2.3246 H         1 MOL         0.0000
     39 H12        -2.4245    1.4059    3.1048 H         1 MOL         0.0000
     40 H13        -1.1062    2.4419    2.5506 H         1 MOL         0.0000
     41 H14         3.6791   -2.6142   -2.4646 H         1 MOL         0.0000
     42 H15         4.4465   -1.6817   -1.1814 H         1 MOL         0.0000
     43 H16         2.2372   -3.7811   -0.8206 H         1 MOL         0.0000
     44 H17         2.9242   -2.8260    0.4932 H         1 MOL         0.0000
     45 H18         4.4762   -4.7365   -1.3310 H         1 MOL         0.0000
     46 H19         5.2076   -3.7657   -0.0577 H         1 MOL         0.0000
     47 H20        -0.7938   -0.2089    4.0542 H         1 MOL         0.0000
     48 H21         0.5501    0.8111    3.5506 H         1 MOL         0.0000
     49 H22        -0.6350    1.3468    0.4196 H         1 MOL         0.0000
     50 H23         0.9187    1.3446    1.2472 H         1 MOL         0.0000
     51 H24         4.8136   -6.1163    0.7170 H         1 MOL         0.0000
     52 H25         3.7631   -4.9984    1.6291 H         1 MOL         0.0000
     53 H26         0.2339   -1.0829    2.0058 H         1 MOL         0.0000
     54 H27         0.1370   -0.2477   -1.0732 H         1 MOL         0.0000
     55 H28         2.5394   -5.9555   -0.7553 H         1 MOL         0.0000
     56 H29         1.9822   -5.9440    0.8072 H         1 MOL         0.0000
     57 H30         2.9571   -7.1801    0.2831 H         1 MOL         0.0000
@<TRIPOS>BOND
     1    1    2 ar
     2    1    4 ar
     3    2    5 ar
     4    3    4 ar
     5    3    6 ar
     6    3    7 1
     7    4   11 1
     8    5    6 ar
     9    5   26 1
    10    6   27 1
    11    7   23 1
    12    7   24 2
    13    8   12 1
    14    8   21 am
    15    8   25 2
    16    9   26 1
    17    9   27 1
    18   10   13 1
    19   11   20 1
    20   12   14 1
    21   13   17 1
    22   14   15 1
    23   15   16 1
    24   16   19 1
    25   17   20 1
    26   18   20 1
    27   18   21 1
    28   19   22 1
    29    1   28 1
    30    2   29 1
    31    9   30 1
    32    9   31 1
    33   10   32 1
    34   10   33 1
    35   10   34 1
    36   11   35 1
    37   11   36 1
    38   12   37 1
    39   12   38 1
    40   13   39 1
    41   13   40 1
    42   14   41 1
    43   14   42 1
    44   15   43 1
    45   15   44 1
    46   16   45 1
    47   16   46 1
    48   17   47 1
    49   17   48 1
    50   18   49 1
    51   18   50 1
    52   19   51 1
    53   19   52 1
    54   20   53 1
    55   21   54 1
    56   22   55 1
    57   22   56 1
    58   22   57 1
