@<TRIPOS>MOLECULE
AVX17542_0
   57    58     0     0     0
SMALL
NO_CHARGES

@<TRIPOS>ATOM
      1 C1         -2.2653    1.6460   -2.7314 C.ar      1 MOL         0.0000
      2 C2         -2.4033    2.8517   -3.4232 C.ar      1 MOL         0.0000
      3 C3         -3.1942    2.6467   -0.7155 C.ar      1 MOL         0.0000
      4 C4         -2.6585    1.5440   -1.3854 C.ar      1 MOL         0.0000
      5 C5         -2.9350    3.9254   -2.7388 C.ar      1 MOL         0.0000
      6 C6         -3.3199    3.8256   -1.4213 C.ar      1 MOL         0.0000
      7 C7         -3.6142    2.5657    0.6927 C.2       1 MOL         0.0000
      8 C8          2.1950    0.6522   -0.8584 C.2       1 MOL         0.0000
      9 C9         -3.7025    5.8446   -2.0989 C.3       1 MOL         0.0000
     10 C10        -1.1429   -3.0784   -2.0429 C.3       1 MOL         0.0000
     11 C11        -1.5340   -4.1008    0.2070 C.3       1 MOL         0.0000
     12 C12        -2.4894    0.2190   -0.6808 C.3       1 MOL         0.0000
     13 C13         3.5750    0.1456   -0.4714 C.3       1 MOL         0.0000
     14 C14         4.6468    0.4105   -1.5276 C.3       1 MOL         0.0000
     15 C15         6.0372   -0.0453   -1.0751 C.3       1 MOL         0.0000
     16 C16        -0.9360   -1.6641    0.0717 C.3       1 MOL         0.0000
     17 C17        -0.1280    0.7815    0.0352 C.3       1 MOL         0.0000
     18 C18         7.0724    0.2060   -2.1620 C.3       1 MOL         0.0000
     19 C19        -1.6703   -2.8251   -0.6302 C.3       1 MOL         0.0000
     20 C20        -1.0240   -0.2830   -0.6244 C.3       1 MOL         0.0000
     21 N1          1.2517    0.3901    0.1308 N.am      1 MOL         0.0000
     22 N2          8.4075   -0.2067   -1.6662 N.4       1 MOL         0.0000
     23 O1         -4.8279    2.2269    0.9590 O.co2     1 MOL         0.0000
     24 O2         -2.7544    2.8367    1.6126 O.co2     1 MOL         0.0000
     25 O3          1.9648    1.2389   -1.9122 O.2       1 MOL         0.0000
     26 O4         -3.1438    5.1710   -3.2454 O.3       1 MOL         0.0000
     27 O5         -3.8176    4.9964   -0.9380 O.3       1 MOL         0.0000
     28 H1         -1.8496    0.7827   -3.2457 H         1 MOL         0.0000
     29 H2         -2.1015    2.9346   -4.4610 H         1 MOL         0.0000
     30 H3         -3.0629    6.6984   -1.8475 H         1 MOL         0.0000
     31 H4         -4.6994    6.2167   -2.3619 H         1 MOL         0.0000
     32 H5         -0.0735   -3.3144   -2.0311 H         1 MOL         0.0000
     33 H6         -1.6688   -3.9188   -2.5089 H         1 MOL         0.0000
     34 H7         -1.2927   -2.2070   -2.6871 H         1 MOL         0.0000
     35 H8         -0.4820   -4.3875    0.3109 H         1 MOL         0.0000
     36 H9         -2.0607   -4.9355   -0.2674 H         1 MOL         0.0000
     37 H10        -1.9486   -3.9643    1.2116 H         1 MOL         0.0000
     38 H11        -3.1137   -0.5148   -1.2083 H         1 MOL         0.0000
     39 H12        -2.9042    0.2839    0.3335 H         1 MOL         0.0000
     40 H13         3.5189   -0.9264   -0.2486 H         1 MOL         0.0000
     41 H14         3.8558    0.6611    0.4553 H         1 MOL         0.0000
     42 H15         4.3816   -0.0813   -2.4712 H         1 MOL         0.0000
     43 H16         4.6766    1.4888   -1.7279 H         1 MOL         0.0000
     44 H17         6.3199    0.4943   -0.1625 H         1 MOL         0.0000
     45 H18         6.0208   -1.1120   -0.8226 H         1 MOL         0.0000
     46 H19        -1.3214   -1.5728    1.0960 H         1 MOL         0.0000
     47 H20         0.1205   -1.9437    0.1722 H         1 MOL         0.0000
     48 H21        -0.1586    1.7146   -0.5378 H         1 MOL         0.0000
     49 H22        -0.4714    1.0181    1.0466 H         1 MOL         0.0000
     50 H23         7.1446    1.2660   -2.4227 H         1 MOL         0.0000
     51 H24         6.8724   -0.3824   -3.0624 H         1 MOL         0.0000
     52 H25        -2.7397   -2.5943   -0.6954 H         1 MOL         0.0000
     53 H26        -0.6696   -0.3978   -1.6566 H         1 MOL         0.0000
     54 H27         1.5470   -0.1170    0.9644 H         1 MOL         0.0000
     55 H28         8.5987    0.1990   -0.7436 H         1 MOL         0.0000
     56 H29         9.1481    0.1016   -2.3059 H         1 MOL         0.0000
     57 H30         8.4687   -1.2273   -1.5810 H         1 MOL         0.0000
@<TRIPOS>BOND
     1    1    2 ar
     2    1    4 ar
     3    2    5 ar
     4    3    4 ar
     5    3    6 ar
     6    3    7 1
     7    4   12 1
     8    5    6 ar
     9    5   26 1
    10    6   27 1
    11    7   23 1
    12    7   24 2
    13    8   13 1
    14    8   21 am
    15    8   25 2
    16    9   26 1
    17    9   27 1
    18   10   19 1
    19   11   19 1
    20   12   20 1
    21   13   14 1
    22   14   15 1
    23   15   18 1
    24   16   19 1
    25   16   20 1
    26   17   20 1
    27   17   21 1
    28   18   22 1
    29    1   28 1
    30    2   29 1
    31    9   30 1
    32    9   31 1
    33   10   32 1
    34   10   33 1
    35   10   34 1
    36   11   35 1
    37   11   36 1
    38   11   37 1
    39   12   38 1
    40   12   39 1
    41   13   40 1
    42   13   41 1
    43   14   42 1
    44   14   43 1
    45   15   44 1
    46   15   45 1
    47   16   46 1
    48   16   47 1
    49   17   48 1
    50   17   49 1
    51   18   50 1
    52   18   51 1
    53   19   52 1
    54   20   53 1
    55   21   54 1
    56   22   55 1
    57   22   56 1
    58   22   57 1
