AVX17228_0
  -OEChem-04011314523D

 32 33  0     0  0  0  0  0  0999 V2000
   -0.5905    3.8786    0.6468 C   0  0  0  0  0  0  0  0  0  0  0  0
   -0.3410    2.7174   -0.0785 C   0  0  0  0  0  0  0  0  0  0  0  0
    1.7503    4.3699    0.6120 C   0  0  0  0  0  0  0  0  0  0  0  0
    0.4634    4.7167    0.9981 C   0  0  0  0  0  0  0  0  0  0  0  0
    0.9663    2.4213   -0.4374 C   0  0  0  0  0  0  0  0  0  0  0  0
    0.9345   -0.0289   -0.5691 C   0  0  0  0  0  0  0  0  0  0  0  0
    2.4324    1.2733   -2.0711 C   0  0  0  0  0  0  0  0  0  0  0  0
    0.7814   -1.0932   -1.6473 C   0  0  0  0  0  0  0  0  0  0  0  0
    2.2800    0.2030   -3.1445 C   0  0  0  0  0  0  0  0  0  0  0  0
    1.9979   -2.2504   -3.4916 C   0  0  0  0  0  0  0  0  0  0  0  0
    1.9623    3.2459   -0.0860 N   0  3  0  0  0  0  0  0  0  0  0  0
    1.2781    1.2681   -1.1668 N   0  0  0  0  0  0  0  0  0  0  0  0
    0.2290    5.9041    1.7368 N   0  3  0  0  0  0  0  0  0  0  0  0
    2.0314   -1.1312   -2.4893 N   0  3  0  0  0  0  0  0  0  0  0  0
   -0.9465    6.1919    2.0721 O   0  5  0  0  0  0  0  0  0  0  0  0
    1.2027    6.6378    2.0373 O   0  0  0  0  0  0  0  0  0  0  0  0
   -1.6115    4.1191    0.9324 H   0  0  0  0  0  0  0  0  0  0  0  0
   -1.1616    2.0619   -0.3537 H   0  0  0  0  0  0  0  0  0  0  0  0
    2.6341    4.9529    0.8352 H   0  0  0  0  0  0  0  0  0  0  0  0
   -0.0097    0.0474   -0.0158 H   0  0  0  0  0  0  0  0  0  0  0  0
    1.7134   -0.3268    0.1450 H   0  0  0  0  0  0  0  0  0  0  0  0
    3.3537    1.1014   -1.4993 H   0  0  0  0  0  0  0  0  0  0  0  0
    2.5262    2.2500   -2.5615 H   0  0  0  0  0  0  0  0  0  0  0  0
    0.6528   -2.0831   -1.1976 H   0  0  0  0  0  0  0  0  0  0  0  0
   -0.0613   -0.8801   -2.3153 H   0  0  0  0  0  0  0  0  0  0  0  0
    1.4307    0.4094   -3.8060 H   0  0  0  0  0  0  0  0  0  0  0  0
    3.1957    0.1171   -3.7387 H   0  0  0  0  0  0  0  0  0  0  0  0
    1.1622   -2.0667   -4.1693 H   0  0  0  0  0  0  0  0  0  0  0  0
    2.9479   -2.2460   -4.0293 H   0  0  0  0  0  0  0  0  0  0  0  0
    1.8610   -3.1850   -2.9443 H   0  0  0  0  0  0  0  0  0  0  0  0
    2.9143    3.0072   -0.3610 H   0  0  0  0  0  0  0  0  0  0  0  0
    2.8241   -1.3231   -1.8617 H   0  0  0  0  0  0  0  0  0  0  0  0
  1  2  2  0  0  0  0
  1  4  1  0  0  0  0
  2  5  1  0  0  0  0
  3  4  2  0  0  0  0
  3 11  1  0  0  0  0
  4 13  1  0  0  0  0
  5 11  2  0  0  0  0
  5 12  1  0  0  0  0
  6  8  1  0  0  0  0
  6 12  1  0  0  0  0
  7  9  1  0  0  0  0
  7 12  1  0  0  0  0
  8 14  1  0  0  0  0
  9 14  1  0  0  0  0
 10 14  1  0  0  0  0
 13 15  1  0  0  0  0
 13 16  2  0  0  0  0
  1 17  1  0  0  0  0
  2 18  1  0  0  0  0
  3 19  1  0  0  0  0
  6 20  1  0  0  0  0
  6 21  1  0  0  0  0
  7 22  1  0  0  0  0
  7 23  1  0  0  0  0
  8 24  1  0  0  0  0
  8 25  1  0  0  0  0
  9 26  1  0  0  0  0
  9 27  1  0  0  0  0
 10 28  1  0  0  0  0
 10 29  1  0  0  0  0
 10 30  1  0  0  0  0
 11 31  1  0  0  0  0
 14 32  1  0  0  0  0
M  CHG  4  11   1  13   1  14   1  15  -1
M  END
$$$$
