AVX17375_2
  -OEChem-04011314533D

 38 41  0     1  0  0  0  0  0999 V2000
   -1.9204    0.9555    0.2371 C   0  0  0  0  0  0  0  0  0  0  0  0
   -1.0710   -0.1533    0.1009 C   0  0  0  0  0  0  0  0  0  0  0  0
   -3.3002    0.7836    0.3651 C   0  0  0  0  0  0  0  0  0  0  0  0
   -1.5898   -1.4496    0.0889 C   0  0  0  0  0  0  0  0  0  0  0  0
   -5.6429   -5.2342   -1.1902 C   0  0  0  0  0  0  0  0  0  0  0  0
   -6.0570   -6.5683   -1.1799 C   0  0  0  0  0  0  0  0  0  0  0  0
   -3.3053   -5.9148   -1.1660 C   0  0  0  0  0  0  0  0  0  0  0  0
   -3.8051   -0.5062    0.3639 C   0  0  0  0  0  0  0  0  0  0  0  0
   -2.9600   -1.6126    0.2208 C   0  0  0  0  0  0  0  0  0  0  0  0
   -4.2750   -4.9093   -1.1834 C   0  0  0  0  0  0  0  0  0  0  0  0
   -5.0796   -7.5420   -1.1627 C   0  0  0  0  0  0  0  0  0  0  0  0
   -3.7406   -7.2240   -1.1561 C   0  0  0  0  0  0  0  0  0  0  0  0
   -1.8675   -5.6011   -1.1595 C   0  0  0  0  0  0  0  0  0  0  0  0
   -5.2395   -0.9289    0.4558 C   0  0  0  0  0  0  0  0  0  0  0  0
   -3.9363   -9.3788   -1.1361 C   0  0  0  0  0  0  0  0  0  0  0  0
   -3.7410   -2.8990    0.2166 C   0  0  1  0  0  0  0  0  0  0  0  0
   -5.0962   -2.4238    0.7918 C   0  0  1  0  0  0  0  0  0  0  0  0
   -3.8789   -3.4574   -1.1952 C   0  0  0  0  0  0  0  0  0  0  0  0
   -1.2540   -5.4814   -2.2857 O   0  5  0  0  0  0  0  0  0  0  0  0
   -1.2695   -5.4568   -0.0280 O   0  0  0  0  0  0  0  0  0  0  0  0
   -5.2917   -8.8861   -1.1514 O   0  0  0  0  0  0  0  0  0  0  0  0
   -2.9469   -8.3293   -1.1396 O   0  0  0  0  0  0  0  0  0  0  0  0
   -5.0816   -2.5609    2.2158 O   0  0  0  0  0  0  0  0  0  0  0  0
   -1.4991    1.9572    0.2394 H   0  0  0  0  0  0  0  0  0  0  0  0
   -0.0000   -0.0000   -0.0004 H   0  0  0  0  0  0  0  0  0  0  0  0
   -3.9556    1.6424    0.4627 H   0  0  0  0  0  0  0  0  0  0  0  0
   -0.9316   -2.3045   -0.0232 H   0  0  0  0  0  0  0  0  0  0  0  0
   -6.3914   -4.4454   -1.2042 H   0  0  0  0  0  0  0  0  0  0  0  0
   -7.1106   -6.8231   -1.1851 H   0  0  0  0  0  0  0  0  0  0  0  0
   -5.7728   -0.3755    1.2343 H   0  0  0  0  0  0  0  0  0  0  0  0
   -5.7207   -0.7871   -0.5174 H   0  0  0  0  0  0  0  0  0  0  0  0
   -3.7955   -9.9906   -0.2377 H   0  0  0  0  0  0  0  0  0  0  0  0
   -3.7820  -10.0093   -2.0194 H   0  0  0  0  0  0  0  0  0  0  0  0
   -3.2643   -3.6324    0.8769 H   0  0  0  0  0  0  0  0  0  0  0  0
   -5.9502   -3.0027    0.4250 H   0  0  0  0  0  0  0  0  0  0  0  0
   -2.9319   -3.3348   -1.7323 H   0  0  0  0  0  0  0  0  0  0  0  0
   -4.6222   -2.8738   -1.7497 H   0  0  0  0  0  0  0  0  0  0  0  0
   -4.9908   -3.5079    2.3957 H   0  0  0  0  0  0  0  0  0  0  0  0
  1  2  1  0  0  0  0
  1  3  2  0  0  0  0
  2  4  2  0  0  0  0
  3  8  1  0  0  0  0
  4  9  1  0  0  0  0
  5  6  2  0  0  0  0
  5 10  1  0  0  0  0
  6 11  1  0  0  0  0
  7 10  2  0  0  0  0
  7 12  1  0  0  0  0
  7 13  1  0  0  0  0
  8  9  2  0  0  0  0
  8 14  1  0  0  0  0
  9 16  1  0  0  0  0
 10 18  1  0  0  0  0
 11 12  2  0  0  0  0
 11 21  1  0  0  0  0
 12 22  1  0  0  0  0
 13 19  1  0  0  0  0
 13 20  2  0  0  0  0
 14 17  1  0  0  0  0
 15 21  1  0  0  0  0
 15 22  1  0  0  0  0
 16 17  1  0  0  0  0
 16 18  1  0  0  0  0
 17 23  1  0  0  0  0
  1 24  1  0  0  0  0
  2 25  1  0  0  0  0
  3 26  1  0  0  0  0
  4 27  1  0  0  0  0
  5 28  1  0  0  0  0
  6 29  1  0  0  0  0
 14 30  1  0  0  0  0
 14 31  1  0  0  0  0
 15 32  1  0  0  0  0
 15 33  1  0  0  0  0
 16 34  1  0  0  0  0
 17 35  1  0  0  0  0
 18 36  1  0  0  0  0
 18 37  1  0  0  0  0
 23 38  1  0  0  0  0
M  CHG  1  19  -1
M  END
$$$$
