@<TRIPOS>MOLECULE
AVX16984_0
   31    33     0     0     0
SMALL
NO_CHARGES

@<TRIPOS>ATOM
      1 C1          0.4419   -0.9093    6.6520 C.ar      1 MOL         0.0000
      2 C2         -2.1518   -7.8957    2.7834 C.ar      1 MOL         0.0000
      3 C3         -1.7998   -7.2531    3.9703 C.ar      1 MOL         0.0000
      4 C4         -0.9199   -1.2711    6.6335 C.ar      1 MOL         0.0000
      5 C5          1.2930   -1.2727    5.6073 C.ar      1 MOL         0.0000
      6 C6         -2.5193   -7.1454    1.6665 C.ar      1 MOL         0.0000
      7 C7         -1.8152   -5.8601    4.0402 C.ar      1 MOL         0.0000
      8 C8         -1.4583   -2.0039    5.5694 C.ar      1 MOL         0.0000
      9 C9          0.7356   -1.9940    4.5730 C.ar      1 MOL         0.0000
     10 C10        -2.5348   -5.7524    1.7364 C.ar      1 MOL         0.0000
     11 C11        -2.1828   -5.1097    2.9233 C.ar      1 MOL         0.0000
     12 C12        -0.6084   -2.3600    4.5384 C.ar      1 MOL         0.0000
     13 C13         1.3465   -2.5160    3.3535 C.2       1 MOL         0.0000
     14 C14         0.2411   -3.2296    2.5844 C.2       1 MOL         0.0000
     15 C15        -2.9270   -4.9790    0.5441 C.2       1 MOL         0.0000
     16 C16        -2.1918   -3.6118    3.0261 C.3       1 MOL         0.0000
     17 N1         -0.8922   -3.0863    3.3668 N.am      1 MOL         0.0000
     18 O1         -4.1689   -4.6847    0.3801 O.co2     1 MOL         0.0000
     19 O2          2.4907   -2.4285    2.9793 O.2       1 MOL         0.0000
     20 O3          0.4348   -3.7726    1.5183 O.2       1 MOL         0.0000
     21 O4         -2.0137   -4.6259   -0.2907 O.co2     1 MOL         0.0000
     22 H1          0.8316   -0.3400    7.4917 H         1 MOL         0.0000
     23 H2         -2.1392   -8.9802    2.7293 H         1 MOL         0.0000
     24 H3         -1.5136   -7.8372    4.8399 H         1 MOL         0.0000
     25 H4         -1.5611   -0.9755    7.4601 H         1 MOL         0.0000
     26 H5          2.3407   -0.9973    5.6167 H         1 MOL         0.0000
     27 H6         -2.7905   -7.6567    0.7463 H         1 MOL         0.0000
     28 H7         -1.5415   -5.3686    4.9701 H         1 MOL         0.0000
     29 H8         -2.5082   -2.2742    5.5692 H         1 MOL         0.0000
     30 H9         -2.4993   -3.1614    2.0760 H         1 MOL         0.0000
     31 H10        -2.9001   -3.2746    3.7902 H         1 MOL         0.0000
@<TRIPOS>BOND
     1    1    4 ar
     2    1    5 ar
     3    2    3 ar
     4    2    6 ar
     5    3    7 ar
     6    4    8 ar
     7    5    9 ar
     8    6   10 ar
     9    7   11 ar
    10    8   12 ar
    11    9   12 ar
    12    9   13 1
    13   10   11 ar
    14   10   15 1
    15   11   16 1
    16   12   17 1
    17   13   14 1
    18   13   19 2
    19   14   17 am
    20   14   20 2
    21   15   18 1
    22   15   21 2
    23   16   17 1
    24    1   22 1
    25    2   23 1
    26    3   24 1
    27    4   25 1
    28    5   26 1
    29    6   27 1
    30    7   28 1
    31    8   29 1
    32   16   30 1
    33   16   31 1
