AVX17231_0
  -OEChem-04011314523D

 27 28  0     0  0  0  0  0  0999 V2000
    3.2875   -1.4549    1.7936 C   0  0  0  0  0  0  0  0  0  0  0  0
    2.1640   -1.4359    0.9726 C   0  0  0  0  0  0  0  0  0  0  0  0
    2.0294   -2.6494    3.4405 C   0  0  0  0  0  0  0  0  0  0  0  0
    3.2241   -2.0670    3.0417 C   0  0  0  0  0  0  0  0  0  0  0  0
    0.9962   -2.0343    1.4237 C   0  0  0  0  0  0  0  0  0  0  0  0
   -0.7487   -0.7573    0.2490 C   0  0  0  0  0  0  0  0  0  0  0  0
   -1.1193   -3.1528    0.7691 C   0  0  0  0  0  0  0  0  0  0  0  0
   -1.6486   -0.9498   -0.9663 C   0  0  0  0  0  0  0  0  0  0  0  0
   -2.0000   -3.2173   -0.4738 C   0  0  0  0  0  0  0  0  0  0  0  0
    0.9627   -2.6167    2.6300 N   0  3  0  0  0  0  0  0  0  0  0  0
   -0.1641   -2.0466    0.6428 N   0  0  0  0  0  0  0  0  0  0  0  0
    4.3583   -2.0966    3.8922 N   0  0  0  0  0  0  0  0  0  0  0  0
    5.4259   -1.5613    3.5042 O   0  0  0  0  0  0  0  0  0  0  0  0
    4.2665   -2.6569    5.0123 O   0  0  0  0  0  0  0  0  0  0  0  0
   -2.6269   -1.9569   -0.7084 O   0  0  0  0  0  0  0  0  0  0  0  0
    4.2071   -0.9888    1.4487 H   0  0  0  0  0  0  0  0  0  0  0  0
    2.2111   -0.9589   -0.0016 H   0  0  0  0  0  0  0  0  0  0  0  0
    1.8784   -3.1483    4.3885 H   0  0  0  0  0  0  0  0  0  0  0  0
    0.0375   -0.0314    0.0104 H   0  0  0  0  0  0  0  0  0  0  0  0
   -1.3406   -0.3620    1.0845 H   0  0  0  0  0  0  0  0  0  0  0  0
   -1.7466   -2.9870    1.6543 H   0  0  0  0  0  0  0  0  0  0  0  0
   -0.5946   -4.1073    0.8947 H   0  0  0  0  0  0  0  0  0  0  0  0
   -2.1760   -0.0175   -1.1916 H   0  0  0  0  0  0  0  0  0  0  0  0
   -1.0676   -1.2255   -1.8547 H   0  0  0  0  0  0  0  0  0  0  0  0
   -1.4209   -3.5063   -1.3592 H   0  0  0  0  0  0  0  0  0  0  0  0
   -2.7874   -3.9650   -0.3352 H   0  0  0  0  0  0  0  0  0  0  0  0
    0.0935   -3.0497    2.9397 H   0  0  0  0  0  0  0  0  0  0  0  0
  1  2  2  0  0  0  0
  1  4  1  0  0  0  0
  2  5  1  0  0  0  0
  3  4  2  0  0  0  0
  3 10  1  0  0  0  0
  4 12  1  0  0  0  0
  5 10  2  0  0  0  0
  5 11  1  0  0  0  0
  6  8  1  0  0  0  0
  6 11  1  0  0  0  0
  7  9  1  0  0  0  0
  7 11  1  0  0  0  0
  8 15  1  0  0  0  0
  9 15  1  0  0  0  0
 12 13  2  0  0  0  0
 12 14  2  0  0  0  0
  1 16  1  0  0  0  0
  2 17  1  0  0  0  0
  3 18  1  0  0  0  0
  6 19  1  0  0  0  0
  6 20  1  0  0  0  0
  7 21  1  0  0  0  0
  7 22  1  0  0  0  0
  8 23  1  0  0  0  0
  8 24  1  0  0  0  0
  9 25  1  0  0  0  0
  9 26  1  0  0  0  0
 10 27  1  0  0  0  0
M  CHG  1  10   1
M  END
$$$$
