@<TRIPOS>MOLECULE
AVX17687_1
   58    62     0     0     0
SMALL
NO_CHARGES

@<TRIPOS>ATOM
      1 C1          2.0711   -0.3869    2.3041 C.ar      1 MOL         0.0000
      2 C2          0.9615   -1.0456    2.8299 C.ar      1 MOL         0.0000
      3 C3          2.0584    0.0589    0.9834 C.ar      1 MOL         0.0000
      4 C4         -0.1641   -1.2672    2.0349 C.ar      1 MOL         0.0000
      5 C5         -5.1219    0.7419   -1.1806 C.ar      1 MOL         0.0000
      6 C6         -1.4300   -0.7033   -4.1042 C.ar      1 MOL         0.0000
      7 C7         -2.5823    1.4202   -4.1005 C.ar      1 MOL         0.0000
      8 C8         -6.1761    1.4482   -1.7647 C.ar      1 MOL         0.0000
      9 C9         -2.5307   -1.2995   -4.7194 C.ar      1 MOL         0.0000
     10 C10        -3.6830    0.8240   -4.7158 C.ar      1 MOL         0.0000
     11 C11         0.9252   -0.1492    0.1881 C.ar      1 MOL         0.0000
     12 C12        -4.6637    2.5930    0.3332 C.ar      1 MOL         0.0000
     13 C13        -0.1944   -0.8293    0.7041 C.ar      1 MOL         0.0000
     14 C14        -1.4558    0.6566   -3.7947 C.ar      1 MOL         0.0000
     15 C15        -4.3701    1.3109   -0.1377 C.ar      1 MOL         0.0000
     16 C16        -6.4455    2.7122   -1.2814 C.ar      1 MOL         0.0000
     17 C17        -5.7096    3.2692   -0.2605 C.ar      1 MOL         0.0000
     18 C18        -3.6572   -0.5359   -5.0252 C.ar      1 MOL         0.0000
     19 C19         0.9623    0.3300   -1.2176 C.2       1 MOL         0.0000
     20 C20        -3.8927    3.2105    1.4241 C.2       1 MOL         0.0000
     21 C21        -1.4078   -1.0930   -0.1449 C.3       1 MOL         0.0000
     22 C22        -1.3156    1.3373   -0.8810 C.3       1 MOL         0.0000
     23 C23        -7.2277    4.6866   -0.8673 C.3       1 MOL         0.0000
     24 C24        -5.8492   -0.2788   -5.9113 C.3       1 MOL         0.0000
     25 C25        -0.2708    1.2987   -3.1331 C.3       1 MOL         0.0000
     26 C26        -3.2476    0.5128    0.4574 C.3       1 MOL         0.0000
     27 N1         -0.1842    0.9572   -1.7213 N.am      1 MOL         0.0000
     28 N2         -2.1871    0.1475   -0.5461 N.4       1 MOL         0.0000
     29 O1         -4.2828    3.0300    2.6382 O.co2     1 MOL         0.0000
     30 O2          1.9931    0.1288   -1.8579 O.2       1 MOL         0.0000
     31 O3         -2.8533    3.9114    1.1290 O.co2     1 MOL         0.0000
     32 O4         -7.4279    3.5435   -1.7236 O.3       1 MOL         0.0000
     33 O5         -6.1391    4.5190    0.0640 O.3       1 MOL         0.0000
     34 O6         -4.7307   -1.1177   -5.6267 O.3       1 MOL         0.0000
     35 H1          2.9468   -0.2197    2.9245 H         1 MOL         0.0000
     36 H2          0.9737   -1.3911    3.8596 H         1 MOL         0.0000
     37 H3          2.9311    0.5747    0.5916 H         1 MOL         0.0000
     38 H4         -1.0173   -1.7882    2.4624 H         1 MOL         0.0000
     39 H5         -4.8871   -0.2569   -1.5411 H         1 MOL         0.0000
     40 H6         -0.5566   -1.3058   -3.8695 H         1 MOL         0.0000
     41 H7         -2.6113    2.4805   -3.8629 H         1 MOL         0.0000
     42 H8         -6.7583    1.0131   -2.5690 H         1 MOL         0.0000
     43 H9         -2.5045   -2.3594   -4.9583 H         1 MOL         0.0000
     44 H10        -4.5573    1.4242   -4.9517 H         1 MOL         0.0000
     45 H11        -1.1069   -1.5856   -1.0782 H         1 MOL         0.0000
     46 H12        -2.1120   -1.7756    0.3454 H         1 MOL         0.0000
     47 H13        -0.9556    1.7693    0.0597 H         1 MOL         0.0000
     48 H14        -1.9455    2.0703   -1.3968 H         1 MOL         0.0000
     49 H15        -7.0218    5.5623   -1.4935 H         1 MOL         0.0000
     50 H16        -8.1489    4.8670   -0.3014 H         1 MOL         0.0000
     51 H17        -6.6350   -0.8680   -6.3903 H         1 MOL         0.0000
     52 H18        -5.5368    0.5355   -6.5699 H         1 MOL         0.0000
     53 H19        -6.2285    0.1376   -4.9751 H         1 MOL         0.0000
     54 H20         0.6600    0.9802   -3.6149 H         1 MOL         0.0000
     55 H21        -0.3206    2.3899   -3.2111 H         1 MOL         0.0000
     56 H22        -2.7462    1.0694    1.2564 H         1 MOL         0.0000
     57 H23        -3.6137   -0.4271    0.8844 H         1 MOL         0.0000
     58 H24        -2.6855   -0.0997   -1.4116 H         1 MOL         0.0000
@<TRIPOS>BOND
     1    1    2 ar
     2    1    3 ar
     3    2    4 ar
     4    3   11 ar
     5    4   13 ar
     6    5    8 ar
     7    5   15 ar
     8    6    9 ar
     9    6   14 ar
    10    7   10 ar
    11    7   14 ar
    12    8   16 ar
    13    9   18 ar
    14   10   18 ar
    15   11   13 ar
    16   11   19 1
    17   12   15 ar
    18   12   17 ar
    19   12   20 1
    20   13   21 1
    21   14   25 1
    22   15   26 1
    23   16   17 ar
    24   16   32 1
    25   17   33 1
    26   18   34 1
    27   19   27 am
    28   19   30 2
    29   20   29 1
    30   20   31 2
    31   21   28 1
    32   22   27 1
    33   22   28 1
    34   23   32 1
    35   23   33 1
    36   24   34 1
    37   25   27 1
    38   26   28 1
    39    1   35 1
    40    2   36 1
    41    3   37 1
    42    4   38 1
    43    5   39 1
    44    6   40 1
    45    7   41 1
    46    8   42 1
    47    9   43 1
    48   10   44 1
    49   21   45 1
    50   21   46 1
    51   22   47 1
    52   22   48 1
    53   23   49 1
    54   23   50 1
    55   24   51 1
    56   24   52 1
    57   24   53 1
    58   25   54 1
    59   25   55 1
    60   26   56 1
    61   26   57 1
    62   28   58 1
