@<TRIPOS>MOLECULE
AVX17375_3
   38    41     0     0     0
SMALL
NO_CHARGES

@<TRIPOS>ATOM
      1 C1          2.6250   -0.3239    0.6896 C.ar      1 MOL         0.0000
      2 C2          1.9389   -1.5361    0.8582 C.ar      1 MOL         0.0000
      3 C3          1.9344    0.8425    0.3570 C.ar      1 MOL         0.0000
      4 C4          0.5528   -1.5992    0.6959 C.ar      1 MOL         0.0000
      5 C5         -4.6173   -0.5994   -1.2023 C.ar      1 MOL         0.0000
      6 C6         -6.0008   -0.5353   -1.0199 C.ar      1 MOL         0.0000
      7 C7         -4.3800   -2.0110    0.7673 C.ar      1 MOL         0.0000
      8 C8          0.5615    0.7680    0.1856 C.ar      1 MOL         0.0000
      9 C9         -0.1274   -0.4411    0.3516 C.ar      1 MOL         0.0000
     10 C10        -3.8115   -1.3331   -0.3139 C.ar      1 MOL         0.0000
     11 C11        -6.5370   -1.2135    0.0554 C.ar      1 MOL         0.0000
     12 C12        -5.7483   -1.9317    0.9249 C.ar      1 MOL         0.0000
     13 C13        -3.5587   -2.7865    1.7107 C.2       1 MOL         0.0000
     14 C14        -0.3792    1.8896   -0.1389 C.3       1 MOL         0.0000
     15 C15        -7.8078   -2.0965    1.5677 C.3       1 MOL         0.0000
     16 C16        -1.6076   -0.2363    0.1627 C.3       1 MOL         0.0000
     17 C17        -1.6244    1.1117   -0.5996 C.3       1 MOL         0.0000
     18 C18        -2.3252   -1.3721   -0.5528 C.3       1 MOL         0.0000
     19 O1         -3.3415   -4.0320    1.4647 O.co2     1 MOL         0.0000
     20 O2         -3.0844   -2.1945    2.7515 O.co2     1 MOL         0.0000
     21 O3         -7.8551   -1.2656    0.3897 O.3       1 MOL         0.0000
     22 O4         -6.4739   -2.5231    1.9127 O.3       1 MOL         0.0000
     23 O5         -1.5488    0.8969   -2.0093 O.3       1 MOL         0.0000
     24 H1          3.7026   -0.2933    0.8258 H         1 MOL         0.0000
     25 H2          2.4917   -2.4329    1.1245 H         1 MOL         0.0000
     26 H3          2.4647    1.7812    0.2371 H         1 MOL         0.0000
     27 H4          0.0305   -2.5385    0.8442 H         1 MOL         0.0000
     28 H5         -4.1670   -0.0749   -2.0418 H         1 MOL         0.0000
     29 H6         -6.6257    0.0292   -1.7026 H         1 MOL         0.0000
     30 H7         -0.5847    2.4633    0.7706 H         1 MOL         0.0000
     31 H8          0.0224    2.5380   -0.9232 H         1 MOL         0.0000
     32 H9         -8.2252   -1.5339    2.4108 H         1 MOL         0.0000
     33 H10        -8.4269   -2.9845    1.3960 H         1 MOL         0.0000
     34 H11        -2.0500   -0.0890    1.1544 H         1 MOL         0.0000
     35 H12        -2.5434    1.6751   -0.4066 H         1 MOL         0.0000
     36 H13        -1.9215   -2.3343   -0.2161 H         1 MOL         0.0000
     37 H14        -2.1220   -1.3178   -1.6289 H         1 MOL         0.0000
     38 H15        -1.5145    1.7746   -2.4186 H         1 MOL         0.0000
@<TRIPOS>BOND
     1    1    2 ar
     2    1    3 ar
     3    2    4 ar
     4    3    8 ar
     5    4    9 ar
     6    5    6 ar
     7    5   10 ar
     8    6   11 ar
     9    7   10 ar
    10    7   12 ar
    11    7   13 1
    12    8    9 ar
    13    8   14 1
    14    9   16 1
    15   10   18 1
    16   11   12 ar
    17   11   21 1
    18   12   22 1
    19   13   19 1
    20   13   20 2
    21   14   17 1
    22   15   21 1
    23   15   22 1
    24   16   17 1
    25   16   18 1
    26   17   23 1
    27    1   24 1
    28    2   25 1
    29    3   26 1
    30    4   27 1
    31    5   28 1
    32    6   29 1
    33   14   30 1
    34   14   31 1
    35   15   32 1
    36   15   33 1
    37   16   34 1
    38   17   35 1
    39   18   36 1
    40   18   37 1
    41   23   38 1
