AVX17369_3
  -OEChem-04011314533D

 35 37  0     1  0  0  0  0  0999 V2000
    2.2812    1.1728   -0.9445 C   0  0  0  0  0  0  0  0  0  0  0  0
    2.1152   -0.0863   -1.5408 C   0  0  0  0  0  0  0  0  0  0  0  0
   -4.5280   -3.9543   -1.3011 C   0  0  0  0  0  0  0  0  0  0  0  0
   -5.3330   -4.0291   -0.1645 C   0  0  0  0  0  0  0  0  0  0  0  0
    1.2883    1.7046   -0.1203 C   0  0  0  0  0  0  0  0  0  0  0  0
    0.9541   -0.8316   -1.3212 C   0  0  0  0  0  0  0  0  0  0  0  0
   -3.2423   -3.4208   -1.2112 C   0  0  0  0  0  0  0  0  0  0  0  0
   -3.5669   -3.0366    1.1518 C   0  0  0  0  0  0  0  0  0  0  0  0
   -4.8525   -3.5702    1.0620 C   0  0  0  0  0  0  0  0  0  0  0  0
    0.1458    0.9529    0.1025 C   0  0  0  0  0  0  0  0  0  0  0  0
   -0.0234   -0.3057   -0.4903 C   0  0  0  0  0  0  0  0  0  0  0  0
   -2.7618   -2.9619    0.0152 C   0  0  0  0  0  0  0  0  0  0  0  0
   -5.7016   -3.6486    2.2614 C   0  0  0  0  0  0  0  0  0  0  0  0
   -1.0525    1.3347    0.9190 C   0  0  0  0  0  0  0  0  0  0  0  0
   -1.3674   -0.8830   -0.1311 C   0  0  2  0  0  0  0  0  0  0  0  0
   -1.7320   -0.0326    1.1107 C   0  0  1  0  0  0  0  0  0  0  0  0
   -1.3739   -2.3856    0.1123 C   0  0  0  0  0  0  0  0  0  0  0  0
   -5.2336   -3.2182    3.3815 O   0  5  0  0  0  0  0  0  0  0  0  0
   -6.8849   -4.1453    2.1520 O   0  0  0  0  0  0  0  0  0  0  0  0
   -1.2353   -0.6403    2.3037 O   0  0  0  0  0  0  0  0  0  0  0  0
    3.1883    1.7409   -1.1319 H   0  0  0  0  0  0  0  0  0  0  0  0
    2.8953   -0.4814   -2.1859 H   0  0  0  0  0  0  0  0  0  0  0  0
   -4.9023   -4.3119   -2.2558 H   0  0  0  0  0  0  0  0  0  0  0  0
   -6.3332   -4.4471   -0.2454 H   0  0  0  0  0  0  0  0  0  0  0  0
    1.4130    2.6827    0.3318 H   0  0  0  0  0  0  0  0  0  0  0  0
    0.8292   -1.7967   -1.8000 H   0  0  0  0  0  0  0  0  0  0  0  0
   -2.6220   -3.3666   -2.1019 H   0  0  0  0  0  0  0  0  0  0  0  0
   -3.1908   -2.6785    2.1074 H   0  0  0  0  0  0  0  0  0  0  0  0
   -0.7632    1.7944    1.8687 H   0  0  0  0  0  0  0  0  0  0  0  0
   -1.6848    2.0132    0.3371 H   0  0  0  0  0  0  0  0  0  0  0  0
   -2.0602   -0.6393   -0.9444 H   0  0  0  0  0  0  0  0  0  0  0  0
   -2.8161    0.0710    1.2272 H   0  0  0  0  0  0  0  0  0  0  0  0
   -0.9520   -2.6014    1.1010 H   0  0  0  0  0  0  0  0  0  0  0  0
   -0.7165   -2.8801   -0.6126 H   0  0  0  0  0  0  0  0  0  0  0  0
   -1.4541   -0.0369    3.0296 H   0  0  0  0  0  0  0  0  0  0  0  0
  1  2  2  0  0  0  0
  1  5  1  0  0  0  0
  2  6  1  0  0  0  0
  3  4  1  0  0  0  0
  3  7  2  0  0  0  0
  4  9  2  0  0  0  0
  5 10  2  0  0  0  0
  6 11  2  0  0  0  0
  7 12  1  0  0  0  0
  8  9  1  0  0  0  0
  8 12  2  0  0  0  0
  9 13  1  0  0  0  0
 10 11  1  0  0  0  0
 10 14  1  0  0  0  0
 11 15  1  0  0  0  0
 12 17  1  0  0  0  0
 13 18  1  0  0  0  0
 13 19  2  0  0  0  0
 14 16  1  0  0  0  0
 15 16  1  0  0  0  0
 15 17  1  0  0  0  0
 16 20  1  0  0  0  0
  1 21  1  0  0  0  0
  2 22  1  0  0  0  0
  3 23  1  0  0  0  0
  4 24  1  0  0  0  0
  5 25  1  0  0  0  0
  6 26  1  0  0  0  0
  7 27  1  0  0  0  0
  8 28  1  0  0  0  0
 14 29  1  0  0  0  0
 14 30  1  0  0  0  0
 15 31  1  0  0  0  0
 16 32  1  0  0  0  0
 17 33  1  0  0  0  0
 17 34  1  0  0  0  0
 20 35  1  0  0  0  0
M  CHG  1  18  -1
M  END
$$$$
