@<TRIPOS>MOLECULE
AVX17288_1
   42    44     0     0     0
SMALL
NO_CHARGES

@<TRIPOS>ATOM
      1 C1          4.6031   -6.1047    5.4089 C.ar      1 MOL         0.0000
      2 C2          5.4359   -6.6900    4.4553 C.ar      1 MOL         0.0000
      3 C3          3.3912   -5.5337    5.0204 C.ar      1 MOL         0.0000
      4 C4          5.0568   -6.7042    3.1130 C.ar      1 MOL         0.0000
      5 C5          2.9695   -6.8130   -0.6418 C.2       1 MOL         0.0000
      6 C6          3.0122   -5.5478    3.6781 C.ar      1 MOL         0.0000
      7 C7          3.8450   -6.1331    2.7243 C.ar      1 MOL         0.0000
      8 C8          2.9659   -5.4110   -0.5141 C.2       1 MOL         0.0000
      9 C9          3.3140   -7.2706    0.6066 C.2       1 MOL         0.0000
     10 C10         1.7242   -4.9345    3.2997 C.2       1 MOL         0.0000
     11 C11        -1.0010   -1.9930   -1.1155 C.3       1 MOL         0.0000
     12 C12        -0.2082   -0.7120   -0.8880 C.3       1 MOL         0.0000
     13 C13        -0.4990   -2.7124   -2.3646 C.3       1 MOL         0.0000
     14 C14         1.2871   -0.9954   -0.9060 C.3       1 MOL         0.0000
     15 C15         1.0181   -2.8928   -2.3311 C.3       1 MOL         0.0000
     16 C16         3.4862   -8.6474    1.1101 C.3       1 MOL         0.0000
     17 C17         2.6581   -4.3976   -1.5770 C.3       1 MOL         0.0000
     18 N1          3.2828   -5.0047    0.7182 N.2       1 MOL         0.0000
     19 N2          3.4887   -6.1582    1.3762 N.pl3     1 MOL         0.0000
     20 O1          1.7046   -3.6875    2.9862 O.co2     1 MOL         0.0000
     21 O2          0.6691   -5.6696    3.2980 O.co2     1 MOL         0.0000
     22 O3          1.6748   -1.6409   -2.1185 O.3       1 MOL         0.0000
     23 O4          1.3626   -3.8638   -1.3472 O.3       1 MOL         0.0000
     24 H1          4.8982   -6.0935    6.4540 H         1 MOL         0.0000
     25 H2          6.3799   -7.1340    4.7586 H         1 MOL         0.0000
     26 H3          2.7506   -5.0797    5.7721 H         1 MOL         0.0000
     27 H4          5.7172   -7.1631    2.3809 H         1 MOL         0.0000
     28 H5          2.7531   -7.4089   -1.5168 H         1 MOL         0.0000
     29 H6         -0.8961   -2.6495   -0.2432 H         1 MOL         0.0000
     30 H7         -2.0672   -1.7629   -1.2179 H         1 MOL         0.0000
     31 H8         -0.4496   -0.0036   -1.6900 H         1 MOL         0.0000
     32 H9         -0.4972   -0.2485    0.0610 H         1 MOL         0.0000
     33 H10        -1.0005   -3.6826   -2.4514 H         1 MOL         0.0000
     34 H11        -0.7684   -2.1104   -3.2411 H         1 MOL         0.0000
     35 H12         1.8429   -0.0546   -0.8394 H         1 MOL         0.0000
     36 H13         1.5854   -1.6116   -0.0500 H         1 MOL         0.0000
     37 H14         1.3470   -3.2765   -3.3031 H         1 MOL         0.0000
     38 H15         4.5259   -8.9902    0.9816 H         1 MOL         0.0000
     39 H16         3.2359   -8.7305    2.1815 H         1 MOL         0.0000
     40 H17         2.8298   -9.3642    0.5874 H         1 MOL         0.0000
     41 H18         3.3884   -3.5813   -1.5632 H         1 MOL         0.0000
     42 H19         2.6861   -4.8574   -2.5708 H         1 MOL         0.0000
@<TRIPOS>BOND
     1    1    2 ar
     2    1    3 ar
     3    2    4 ar
     4    3    6 ar
     5    4    7 ar
     6    5    8 1
     7    5    9 2
     8    6    7 ar
     9    6   10 1
    10    7   19 1
    11    8   17 1
    12    8   18 2
    13    9   16 1
    14    9   19 1
    15   10   20 1
    16   10   21 2
    17   11   12 1
    18   11   13 1
    19   12   14 1
    20   13   15 1
    21   14   22 1
    22   15   22 1
    23   15   23 1
    24   17   23 1
    25   18   19 1
    26    1   24 1
    27    2   25 1
    28    3   26 1
    29    4   27 1
    30    5   28 1
    31   11   29 1
    32   11   30 1
    33   12   31 1
    34   12   32 1
    35   13   33 1
    36   13   34 1
    37   14   35 1
    38   14   36 1
    39   15   37 1
    40   16   38 1
    41   16   39 1
    42   16   40 1
    43   17   41 1
    44   17   42 1
