@<TRIPOS>MOLECULE
AVX17557_0
   59    62     0     0     0
SMALL
NO_CHARGES

@<TRIPOS>ATOM
      1 C1          2.0069    1.7310   -0.6805 C.ar      1 MOL         0.0000
      2 C2          2.2404    0.4799   -1.2717 C.ar      1 MOL         0.0000
      3 C3          0.8190    1.9810    0.0082 C.ar      1 MOL         0.0000
      4 C4          1.2891   -0.5394   -1.1834 C.ar      1 MOL         0.0000
      5 C5         -2.8161   -3.8512    0.6873 C.ar      1 MOL         0.0000
      6 C6         -3.9375   -4.6567    0.4751 C.ar      1 MOL         0.0000
      7 C7         -2.1912   -4.0290   -1.6592 C.ar      1 MOL         0.0000
      8 C8         -0.1125    0.9601    0.1024 C.ar      1 MOL         0.0000
      9 C9          0.1167   -0.2913   -0.4868 C.ar      1 MOL         0.0000
     10 C10        -1.9480   -3.5390   -0.3737 C.ar      1 MOL         0.0000
     11 C11        -4.1549   -5.1277   -0.8034 C.ar      1 MOL         0.0000
     12 C12        -3.3053   -4.8221   -1.8420 C.ar      1 MOL         0.0000
     13 C13        -1.2985   -3.7160   -2.7867 C.2       1 MOL         0.0000
     14 C14        -2.0860   -0.9680    3.3526 C.2       1 MOL         0.0000
     15 C15        -1.4594    1.0068    0.7597 C.3       1 MOL         0.0000
     16 C16        -4.8944   -6.0797   -2.6003 C.3       1 MOL         0.0000
     17 C17        -1.0743   -1.1908   -0.2824 C.3       1 MOL         0.0000
     18 C18        -1.7710   -0.4967    0.9214 C.3       1 MOL         0.0000
     19 C19        -0.7528   -2.6669   -0.0948 C.3       1 MOL         0.0000
     20 C20        -1.3228   -1.5000    4.5546 C.3       1 MOL         0.0000
     21 C21        -2.2090   -2.1902    5.5906 C.3       1 MOL         0.0000
     22 C22        -2.9618   -3.3912    5.0075 C.3       1 MOL         0.0000
     23 C23        -3.8590   -4.0452    6.0629 C.3       1 MOL         0.0000
     24 C24        -4.6422   -5.2414    5.5361 C.3       1 MOL         0.0000
     25 N1         -1.3022   -0.9736    2.2078 N.am      1 MOL         0.0000
     26 N2         -3.7226   -6.2986    5.0541 N.4       1 MOL         0.0000
     27 O1         -1.5386   -2.6674   -3.4948 O.co2     1 MOL         0.0000
     28 O2         -0.3067   -4.5013   -3.0285 O.co2     1 MOL         0.0000
     29 O3         -3.2453   -0.5679    3.4150 O.2       1 MOL         0.0000
     30 O4         -5.1888   -5.9199   -1.1975 O.3       1 MOL         0.0000
     31 O5         -3.7007   -5.3851   -3.0162 O.3       1 MOL         0.0000
     32 H1          2.7566    2.5131   -0.7651 H         1 MOL         0.0000
     33 H2          3.1684    0.3057   -1.8097 H         1 MOL         0.0000
     34 H3          0.6345    2.9522    0.4544 H         1 MOL         0.0000
     35 H4          1.4725   -1.4974   -1.6578 H         1 MOL         0.0000
     36 H5         -2.6199   -3.4654    1.6849 H         1 MOL         0.0000
     37 H6         -4.6094   -4.8997    1.2904 H         1 MOL         0.0000
     38 H7         -1.4342    1.5384    1.7158 H         1 MOL         0.0000
     39 H8         -2.1761    1.4849    0.0830 H         1 MOL         0.0000
     40 H9         -4.7710   -7.1477   -2.8136 H         1 MOL         0.0000
     41 H10        -5.7420   -5.6999   -3.1823 H         1 MOL         0.0000
     42 H11        -1.7182   -1.0792   -1.1687 H         1 MOL         0.0000
     43 H12        -2.8514   -0.6820    0.9115 H         1 MOL         0.0000
     44 H13        -0.3985   -2.8401    0.9281 H         1 MOL         0.0000
     45 H14         0.0751   -2.9509   -0.7551 H         1 MOL         0.0000
     46 H15        -0.5367   -2.1832    4.2124 H         1 MOL         0.0000
     47 H16        -0.8308   -0.6403    5.0259 H         1 MOL         0.0000
     48 H17        -1.5726   -2.5375    6.4138 H         1 MOL         0.0000
     49 H18        -2.9217   -1.4752    6.0186 H         1 MOL         0.0000
     50 H19        -2.2402   -4.1278    4.6338 H         1 MOL         0.0000
     51 H20        -3.5653   -3.0679    4.1530 H         1 MOL         0.0000
     52 H21        -3.2359   -4.3877    6.8982 H         1 MOL         0.0000
     53 H22        -4.5512   -3.2986    6.4715 H         1 MOL         0.0000
     54 H23        -5.2754   -5.6921    6.3059 H         1 MOL         0.0000
     55 H24        -5.2611   -4.9543    4.6809 H         1 MOL         0.0000
     56 H25        -0.3531   -1.3295    2.2743 H         1 MOL         0.0000
     57 H26        -2.7633   -6.1276    5.3759 H         1 MOL         0.0000
     58 H27        -3.7086   -6.3347    4.0284 H         1 MOL         0.0000
     59 H28        -4.0100   -7.2219    5.3976 H         1 MOL         0.0000
@<TRIPOS>BOND
     1    1    2 ar
     2    1    3 ar
     3    2    4 ar
     4    3    8 ar
     5    4    9 ar
     6    5    6 ar
     7    5   10 ar
     8    6   11 ar
     9    7   10 ar
    10    7   12 ar
    11    7   13 1
    12    8    9 ar
    13    8   15 1
    14    9   17 1
    15   10   19 1
    16   11   12 ar
    17   11   30 1
    18   12   31 1
    19   13   27 1
    20   13   28 2
    21   14   20 1
    22   14   25 am
    23   14   29 2
    24   15   18 1
    25   16   30 1
    26   16   31 1
    27   17   18 1
    28   17   19 1
    29   18   25 1
    30   20   21 1
    31   21   22 1
    32   22   23 1
    33   23   24 1
    34   24   26 1
    35    1   32 1
    36    2   33 1
    37    3   34 1
    38    4   35 1
    39    5   36 1
    40    6   37 1
    41   15   38 1
    42   15   39 1
    43   16   40 1
    44   16   41 1
    45   17   42 1
    46   18   43 1
    47   19   44 1
    48   19   45 1
    49   20   46 1
    50   20   47 1
    51   21   48 1
    52   21   49 1
    53   22   50 1
    54   22   51 1
    55   23   52 1
    56   23   53 1
    57   24   54 1
    58   24   55 1
    59   25   56 1
    60   26   57 1
    61   26   58 1
    62   26   59 1
