@<TRIPOS>MOLECULE
AVX17375_0
   38    41     0     0     0
SMALL
NO_CHARGES

@<TRIPOS>ATOM
      1 C1          2.2812    1.1728   -0.9445 C.ar      1 MOL         0.0000
      2 C2          2.1152   -0.0863   -1.5408 C.ar      1 MOL         0.0000
      3 C3          1.2883    1.7046   -0.1203 C.ar      1 MOL         0.0000
      4 C4          0.9541   -0.8316   -1.3212 C.ar      1 MOL         0.0000
      5 C5         -3.5483   -3.0234    1.1790 C.ar      1 MOL         0.0000
      6 C6         -4.8415   -3.5499    1.1363 C.ar      1 MOL         0.0000
      7 C7         -3.2593   -3.4263   -1.2047 C.ar      1 MOL         0.0000
      8 C8          0.1458    0.9529    0.1025 C.ar      1 MOL         0.0000
      9 C9         -0.0234   -0.3057   -0.4903 C.ar      1 MOL         0.0000
     10 C10        -2.7618   -2.9619    0.0152 C.ar      1 MOL         0.0000
     11 C11        -5.3090   -4.0017   -0.0807 C.ar      1 MOL         0.0000
     12 C12        -4.5392   -3.9415   -1.2199 C.ar      1 MOL         0.0000
     13 C13        -2.4567   -3.3722   -2.4371 C.2       1 MOL         0.0000
     14 C14        -1.0525    1.3347    0.9190 C.3       1 MOL         0.0000
     15 C15        -6.4519   -4.8165   -1.7275 C.3       1 MOL         0.0000
     16 C16        -1.3674   -0.8830   -0.1311 C.3       1 MOL         0.0000
     17 C17        -1.7320   -0.0326    1.1107 C.3       1 MOL         0.0000
     18 C18        -1.3739   -2.3856    0.1123 C.3       1 MOL         0.0000
     19 O1         -2.5307   -2.3223   -3.1795 O.co2     1 MOL         0.0000
     20 O2         -1.7067   -4.3766   -2.7331 O.co2     1 MOL         0.0000
     21 O3         -6.5359   -4.5424   -0.3140 O.3       1 MOL         0.0000
     22 O4         -5.1876   -4.4371   -2.3088 O.3       1 MOL         0.0000
     23 O5         -1.2353   -0.6403    2.3037 O.3       1 MOL         0.0000
     24 H1          3.1883    1.7409   -1.1319 H         1 MOL         0.0000
     25 H2          2.8953   -0.4814   -2.1859 H         1 MOL         0.0000
     26 H3          1.4130    2.6827    0.3318 H         1 MOL         0.0000
     27 H4          0.8292   -1.7967   -1.8000 H         1 MOL         0.0000
     28 H5         -3.1537   -2.6593    2.1246 H         1 MOL         0.0000
     29 H6         -5.4512   -3.5991    2.0312 H         1 MOL         0.0000
     30 H7         -0.7632    1.7944    1.8687 H         1 MOL         0.0000
     31 H8         -1.6848    2.0132    0.3371 H         1 MOL         0.0000
     32 H9         -6.6027   -5.8905   -1.8861 H         1 MOL         0.0000
     33 H10        -7.2518   -4.2692   -2.2393 H         1 MOL         0.0000
     34 H11        -2.0602   -0.6393   -0.9444 H         1 MOL         0.0000
     35 H12        -2.8161    0.0710    1.2272 H         1 MOL         0.0000
     36 H13        -0.9520   -2.6014    1.1010 H         1 MOL         0.0000
     37 H14        -0.7165   -2.8801   -0.6126 H         1 MOL         0.0000
     38 H15        -1.4541   -0.0369    3.0296 H         1 MOL         0.0000
@<TRIPOS>BOND
     1    1    2 ar
     2    1    3 ar
     3    2    4 ar
     4    3    8 ar
     5    4    9 ar
     6    5    6 ar
     7    5   10 ar
     8    6   11 ar
     9    7   10 ar
    10    7   12 ar
    11    7   13 1
    12    8    9 ar
    13    8   14 1
    14    9   16 1
    15   10   18 1
    16   11   12 ar
    17   11   21 1
    18   12   22 1
    19   13   19 1
    20   13   20 2
    21   14   17 1
    22   15   21 1
    23   15   22 1
    24   16   17 1
    25   16   18 1
    26   17   23 1
    27    1   24 1
    28    2   25 1
    29    3   26 1
    30    4   27 1
    31    5   28 1
    32    6   29 1
    33   14   30 1
    34   14   31 1
    35   15   32 1
    36   15   33 1
    37   16   34 1
    38   17   35 1
    39   18   36 1
    40   18   37 1
    41   23   38 1
