@<TRIPOS>MOLECULE
AVX101123_0
   55    57     0     0     0
SMALL
NO_CHARGES

@<TRIPOS>ATOM
      1 C1          5.1933   -2.0630   -0.9000 C.ar      1 MOL         0.0000
      2 C2          4.1552   -2.8835   -0.4588 C.ar      1 MOL         0.0000
      3 C3          5.7476   -1.1157   -0.0391 C.ar      1 MOL         0.0000
      4 C4          3.6713   -2.7567    0.8433 C.ar      1 MOL         0.0000
      5 C5          5.2637   -0.9889    1.2630 C.ar      1 MOL         0.0000
      6 C6          0.8590   -1.0691    1.4036 C.ar      1 MOL         0.0000
      7 C7         -0.3593   -1.5648    0.9331 C.ar      1 MOL         0.0000
      8 C8          0.3467   -1.8303    3.6588 C.ar      1 MOL         0.0000
      9 C9          4.2255   -1.8094    1.7042 C.ar      1 MOL         0.0000
     10 C10         1.2100   -1.2012    2.7586 C.ar      1 MOL         0.0000
     11 C11        -1.1937   -2.1817    1.8424 C.ar      1 MOL         0.0000
     12 C12        -0.8501   -2.3111    3.1688 C.ar      1 MOL         0.0000
     13 C13         0.6911   -1.9821    5.0816 C.2       1 MOL         0.0000
     14 C14         4.7898   -2.8324    6.0652 C.2       1 MOL         0.0000
     15 C15        -2.7975   -3.2064    2.8720 C.3       1 MOL         0.0000
     16 C16         2.5390   -0.6487    3.2192 C.3       1 MOL         0.0000
     17 C17         4.3406   -2.8896    7.5163 C.3       1 MOL         0.0000
     18 C18         4.6613   -4.2135    8.2085 C.3       1 MOL         0.0000
     19 C19         4.2628   -4.2103    9.6873 C.3       1 MOL         0.0000
     20 C20         4.8099   -1.2784    4.1168 C.3       1 MOL         0.0000
     21 C21         4.5686   -5.5528   10.3358 C.3       1 MOL         0.0000
     22 C22         3.6974   -1.6702    3.1262 C.3       1 MOL         0.0000
     23 N1          4.4764   -1.6128    5.4827 N.am      1 MOL         0.0000
     24 N2          4.2103   -5.4908   11.7732 N.4       1 MOL         0.0000
     25 O1          1.3252   -3.0385    5.4567 O.co2     1 MOL         0.0000
     26 O2          0.3469   -1.0537    5.9052 O.co2     1 MOL         0.0000
     27 O3          5.3749   -3.7552    5.5051 O.2       1 MOL         0.0000
     28 O4         -2.4121   -2.7227    1.5690 O.3       1 MOL         0.0000
     29 O5         -1.8105   -2.9489    3.8918 O.3       1 MOL         0.0000
     30 H1          5.5709   -2.1628   -1.9135 H         1 MOL         0.0000
     31 H2          3.7242   -3.6219   -1.1286 H         1 MOL         0.0000
     32 H3          6.5565   -0.4774   -0.3820 H         1 MOL         0.0000
     33 H4          2.8621   -3.4002    1.1784 H         1 MOL         0.0000
     34 H5          5.7015   -0.2480    1.9266 H         1 MOL         0.0000
     35 H6          1.5369   -0.5784    0.7092 H         1 MOL         0.0000
     36 H7         -0.6338   -1.4651   -0.1109 H         1 MOL         0.0000
     37 H8         -3.7367   -2.7217    3.1625 H         1 MOL         0.0000
     38 H9         -2.9639   -4.2879    2.8098 H         1 MOL         0.0000
     39 H10         2.4448   -0.2603    4.2417 H         1 MOL         0.0000
     40 H11         2.7693    0.2264    2.5962 H         1 MOL         0.0000
     41 H12         3.2653   -2.6832    7.5719 H         1 MOL         0.0000
     42 H13         4.8599   -2.0796    8.0432 H         1 MOL         0.0000
     43 H14         4.1665   -5.0438    7.6904 H         1 MOL         0.0000
     44 H15         5.7416   -4.3904    8.1343 H         1 MOL         0.0000
     45 H16         4.8064   -3.4138   10.2108 H         1 MOL         0.0000
     46 H17         3.1943   -3.9875    9.7895 H         1 MOL         0.0000
     47 H18         5.7351   -1.8164    3.8842 H         1 MOL         0.0000
     48 H19         5.0304   -0.2064    4.0861 H         1 MOL         0.0000
     49 H20         5.6329   -5.8003   10.2845 H         1 MOL         0.0000
     50 H21         3.9798   -6.3636    9.8967 H         1 MOL         0.0000
     51 H22         3.3131   -2.6498    3.4449 H         1 MOL         0.0000
     52 H23         3.9774   -0.9159    6.0278 H         1 MOL         0.0000
     53 H24         3.2381   -5.1878   11.8972 H         1 MOL         0.0000
     54 H25         4.8134   -4.8284   12.2736 H         1 MOL         0.0000
     55 H26         4.3136   -6.4096   12.2179 H         1 MOL         0.0000
@<TRIPOS>BOND
     1    1    2 ar
     2    1    3 ar
     3    2    4 ar
     4    3    5 ar
     5    4    9 ar
     6    5    9 ar
     7    6    7 ar
     8    6   10 ar
     9    7   11 ar
    10    8   10 ar
    11    8   12 ar
    12    8   13 1
    13    9   22 1
    14   10   16 1
    15   11   12 ar
    16   11   28 1
    17   12   29 1
    18   13   25 1
    19   13   26 2
    20   14   17 1
    21   14   23 am
    22   14   27 2
    23   15   28 1
    24   15   29 1
    25   16   22 1
    26   17   18 1
    27   18   19 1
    28   19   21 1
    29   20   22 1
    30   20   23 1
    31   21   24 1
    32    1   30 1
    33    2   31 1
    34    3   32 1
    35    4   33 1
    36    5   34 1
    37    6   35 1
    38    7   36 1
    39   15   37 1
    40   15   38 1
    41   16   39 1
    42   16   40 1
    43   17   41 1
    44   17   42 1
    45   18   43 1
    46   18   44 1
    47   19   45 1
    48   19   46 1
    49   20   47 1
    50   20   48 1
    51   21   49 1
    52   21   50 1
    53   22   51 1
    54   23   52 1
    55   24   53 1
    56   24   54 1
    57   24   55 1
