@<TRIPOS>MOLECULE
AVX17268_0
   41    44     0     0     0
SMALL
NO_CHARGES

@<TRIPOS>ATOM
      1 C1         -6.5754   -0.6533    1.2621 C.ar      1 MOL         0.0000
      2 C2         -5.7533   -1.5141    0.5375 C.ar      1 MOL         0.0000
      3 C3         -6.0527    0.1409    2.2892 C.ar      1 MOL         0.0000
      4 C4         -2.7356    1.6243    6.5589 C.ar      1 MOL         0.0000
      5 C5         -4.3865   -1.6089    0.8148 C.ar      1 MOL         0.0000
      6 C6         -2.4517    1.2677    7.8793 C.ar      1 MOL         0.0000
      7 C7         -2.5561    0.2159    3.3517 C.2       1 MOL         0.0000
      8 C8         -4.6777    0.0622    2.5869 C.ar      1 MOL         0.0000
      9 C9         -4.9430    0.6087    6.7140 C.ar      1 MOL         0.0000
     10 C10        -3.9741    1.2968    5.9795 C.ar      1 MOL         0.0000
     11 C11        -3.8302    0.7022    3.5340 C.2       1 MOL         0.0000
     12 C12        -3.8780   -0.8091    1.8443 C.ar      1 MOL         0.0000
     13 C13        -3.4254    0.5889    8.5827 C.ar      1 MOL         0.0000
     14 C14        -4.6377    0.2683    8.0157 C.ar      1 MOL         0.0000
     15 C15        -6.2330    0.2570    6.1388 C.2       1 MOL         0.0000
     16 C16        -4.6161   -0.4621   10.0524 C.3       1 MOL         0.0000
     17 C17        -4.2341    1.7076    4.5379 C.3       1 MOL         0.0000
     18 C18        -7.4192    1.2343    6.2579 C.3       1 MOL         0.0000
     19 C19        -8.7808    0.5518    6.2998 C.3       1 MOL         0.0000
     20 N1         -2.5950   -0.6949    2.3302 N.pl3     1 MOL         0.0000
     21 O1         -6.3907   -0.8300    5.5475 O.2       1 MOL         0.0000
     22 O2         -3.3290    0.1632    9.8717 O.3       1 MOL         0.0000
     23 O3         -5.4519   -0.3984    8.8786 O.3       1 MOL         0.0000
     24 O4         -8.8335   -0.3321    7.4123 O.3       1 MOL         0.0000
     25 H1         -7.6350   -0.5966    1.0276 H         1 MOL         0.0000
     26 H2         -6.1803   -2.1219   -0.2560 H         1 MOL         0.0000
     27 H3         -6.7066    0.8076    2.8443 H         1 MOL         0.0000
     28 H4         -1.9865    2.1603    5.9809 H         1 MOL         0.0000
     29 H5         -3.7476   -2.2801    0.2509 H         1 MOL         0.0000
     30 H6         -1.4983    1.5188    8.3299 H         1 MOL         0.0000
     31 H7         -1.6250    0.4365    3.8553 H         1 MOL         0.0000
     32 H8         -4.4610   -1.5149   10.3163 H         1 MOL         0.0000
     33 H9         -5.1347    0.0355   10.8797 H         1 MOL         0.0000
     34 H10        -5.3092    1.9631    4.4397 H         1 MOL         0.0000
     35 H11        -3.7292    2.6789    4.3584 H         1 MOL         0.0000
     36 H12        -7.2861    1.7995    7.1866 H         1 MOL         0.0000
     37 H13        -7.3801    1.9102    5.3965 H         1 MOL         0.0000
     38 H14        -9.5967    1.2766    6.3845 H         1 MOL         0.0000
     39 H15        -8.9280   -0.0410    5.3915 H         1 MOL         0.0000
     40 H16        -1.7976   -1.2095    1.9826 H         1 MOL         0.0000
     41 H17        -8.6941    0.2089    8.2061 H         1 MOL         0.0000
@<TRIPOS>BOND
     1    1    2 ar
     2    1    3 ar
     3    2    5 ar
     4    3    8 ar
     5    4    6 ar
     6    4   10 ar
     7    5   12 ar
     8    6   13 ar
     9    7   11 2
    10    7   20 1
    11    8   11 1
    12    8   12 ar
    13    9   10 ar
    14    9   14 ar
    15    9   15 1
    16   10   17 1
    17   11   17 1
    18   12   20 1
    19   13   14 ar
    20   13   22 1
    21   14   23 1
    22   15   18 1
    23   15   21 2
    24   16   22 1
    25   16   23 1
    26   18   19 1
    27   19   24 1
    28    1   25 1
    29    2   26 1
    30    3   27 1
    31    4   28 1
    32    5   29 1
    33    6   30 1
    34    7   31 1
    35   16   32 1
    36   16   33 1
    37   17   34 1
    38   17   35 1
    39   18   36 1
    40   18   37 1
    41   19   38 1
    42   19   39 1
    43   20   40 1
    44   24   41 1
