AVX101133_1
  -OEChem-04011314513D

 60 63  0     1  0  0  0  0  0999 V2000
   -0.9609   -2.3954   -3.6063 C   0  0  0  0  0  0  0  0  0  0  0  0
   -1.6298   -1.7256   -4.6406 C   0  0  0  0  0  0  0  0  0  0  0  0
   -0.5492   -1.7076   -2.4618 C   0  0  0  0  0  0  0  0  0  0  0  0
   -0.8847   -1.6763    0.9972 C   0  0  0  0  0  0  0  0  0  0  0  0
   -1.8964   -0.3592   -4.5435 C   0  0  0  0  0  0  0  0  0  0  0  0
   -0.6995   -2.9711    1.4828 C   0  0  0  0  0  0  0  0  0  0  0  0
   -0.8147   -0.3480   -2.3723 C   0  0  0  0  0  0  0  0  0  0  0  0
    0.1764   -0.9939    0.4014 C   0  0  0  0  0  0  0  0  0  0  0  0
    1.4288   -1.6000    0.2985 C   0  0  0  0  0  0  0  0  0  0  0  0
   -1.4773    0.3184   -3.4078 C   0  0  0  0  0  0  0  0  0  0  0  0
    0.5491   -3.5830    1.3685 C   0  0  0  0  0  0  0  0  0  0  0  0
    1.6184   -2.8895    0.7961 C   0  0  0  0  0  0  0  0  0  0  0  0
   -0.4976    0.6168   -1.3210 C   0  0  0  0  0  0  0  0  0  0  0  0
   -0.0579    0.3309   -0.0904 C   0  0  0  0  0  0  0  0  0  0  0  0
    2.5602   -0.8794   -0.3251 C   0  0  0  0  0  0  0  0  0  0  0  0
    0.5798    4.0313   -2.1922 C   0  0  0  0  0  0  0  0  0  0  0  0
   -1.7092    1.7658   -3.0900 C   0  0  0  0  0  0  0  0  0  0  0  0
    1.8524   -5.5033    1.3737 C   0  0  0  0  0  0  0  0  0  0  0  0
    3.0420   -4.5742    1.5177 C   0  0  0  0  0  0  0  0  0  0  0  0
   -0.8181    1.9958   -1.8541 C   0  0  2  0  0  0  0  0  0  0  0  0
    1.9760    4.4361   -2.6366 C   0  0  0  0  0  0  0  0  0  0  0  0
    2.2082    5.9463   -2.6380 C   0  0  0  0  0  0  0  0  0  0  0  0
    3.6266    6.3183   -3.0841 C   0  0  0  0  0  0  0  0  0  0  0  0
    3.8353    7.8356   -3.0508 C   0  0  0  0  0  0  0  0  0  0  0  0
    5.2343    8.2648   -3.4753 C   0  0  0  0  0  0  0  0  0  0  0  0
    0.4193    2.6533   -2.2080 N   0  0  0  0  0  0  0  0  0  0  0  0
    5.5160    7.8330   -4.8645 N   0  3  0  0  0  0  0  0  0  0  0  0
    2.7420   -1.0030   -1.5906 O   0  5  0  0  0  0  0  0  0  0  0  0
    3.3153   -0.1596    0.4239 O   0  0  0  0  0  0  0  0  0  0  0  0
   -0.2891    4.8419   -1.8829 O   0  0  0  0  0  0  0  0  0  0  0  0
    0.6637   -4.8627    1.8454 O   0  0  0  0  0  0  0  0  0  0  0  0
    2.8757   -3.4235    0.6849 O   0  0  0  0  0  0  0  0  0  0  0  0
   -0.7617   -3.4598   -3.6961 H   0  0  0  0  0  0  0  0  0  0  0  0
   -1.9465   -2.2769   -5.5218 H   0  0  0  0  0  0  0  0  0  0  0  0
   -0.0299   -2.2393   -1.6712 H   0  0  0  0  0  0  0  0  0  0  0  0
   -1.8654   -1.2149    1.0883 H   0  0  0  0  0  0  0  0  0  0  0  0
   -2.4240    0.1556   -5.3396 H   0  0  0  0  0  0  0  0  0  0  0  0
   -1.5333   -3.4981    1.9386 H   0  0  0  0  0  0  0  0  0  0  0  0
    0.1065    1.1647    0.5897 H   0  0  0  0  0  0  0  0  0  0  0  0
   -1.4453    2.4157   -3.9307 H   0  0  0  0  0  0  0  0  0  0  0  0
   -2.7653    1.9090   -2.8338 H   0  0  0  0  0  0  0  0  0  0  0  0
    1.6974   -5.8042    0.3300 H   0  0  0  0  0  0  0  0  0  0  0  0
    2.0026   -6.4079    1.9712 H   0  0  0  0  0  0  0  0  0  0  0  0
    3.1705   -4.2393    2.5547 H   0  0  0  0  0  0  0  0  0  0  0  0
    3.9605   -5.0811    1.2060 H   0  0  0  0  0  0  0  0  0  0  0  0
   -1.3253    2.6284   -1.1181 H   0  0  0  0  0  0  0  0  0  0  0  0
    2.7179    3.9387   -2.0009 H   0  0  0  0  0  0  0  0  0  0  0  0
    2.1082    4.0564   -3.6572 H   0  0  0  0  0  0  0  0  0  0  0  0
    1.4889    6.4063   -3.3267 H   0  0  0  0  0  0  0  0  0  0  0  0
    2.0086    6.3630   -1.6435 H   0  0  0  0  0  0  0  0  0  0  0  0
    3.7980    5.9478   -4.1021 H   0  0  0  0  0  0  0  0  0  0  0  0
    4.3578    5.8267   -2.4340 H   0  0  0  0  0  0  0  0  0  0  0  0
    3.1139    8.3097   -3.7277 H   0  0  0  0  0  0  0  0  0  0  0  0
    3.6195    8.2149   -2.0443 H   0  0  0  0  0  0  0  0  0  0  0  0
    5.3605    9.3509   -3.4440 H   0  0  0  0  0  0  0  0  0  0  0  0
    5.9934    7.7939   -2.8437 H   0  0  0  0  0  0  0  0  0  0  0  0
    1.2106    2.0781   -2.4819 H   0  0  0  0  0  0  0  0  0  0  0  0
    4.6550    7.5447   -5.3427 H   0  0  0  0  0  0  0  0  0  0  0  0
    6.1649    7.0379   -4.8785 H   0  0  0  0  0  0  0  0  0  0  0  0
    5.9385    8.5938   -5.4085 H   0  0  0  0  0  0  0  0  0  0  0  0
  1  2  2  0  0  0  0
  1  3  1  0  0  0  0
  2  5  1  0  0  0  0
  3  7  2  0  0  0  0
  4  6  2  0  0  0  0
  4  8  1  0  0  0  0
  5 10  2  0  0  0  0
  6 11  1  0  0  0  0
  7 10  1  0  0  0  0
  7 13  1  0  0  0  0
  8  9  2  0  0  0  0
  8 14  1  0  0  0  0
  9 12  1  0  0  0  0
  9 15  1  0  0  0  0
 10 17  1  0  0  0  0
 11 12  2  0  0  0  0
 11 31  1  0  0  0  0
 12 32  1  0  0  0  0
 13 14  2  0  0  0  0
 13 20  1  0  0  0  0
 15 28  1  0  0  0  0
 15 29  2  0  0  0  0
 16 21  1  0  0  0  0
 16 26  1  0  0  0  0
 16 30  2  0  0  0  0
 17 20  1  0  0  0  0
 18 19  1  0  0  0  0
 18 31  1  0  0  0  0
 19 32  1  0  0  0  0
 20 26  1  0  0  0  0
 21 22  1  0  0  0  0
 22 23  1  0  0  0  0
 23 24  1  0  0  0  0
 24 25  1  0  0  0  0
 25 27  1  0  0  0  0
  1 33  1  0  0  0  0
  2 34  1  0  0  0  0
  3 35  1  0  0  0  0
  4 36  1  0  0  0  0
  5 37  1  0  0  0  0
  6 38  1  0  0  0  0
 14 39  1  0  0  0  0
 17 40  1  0  0  0  0
 17 41  1  0  0  0  0
 18 42  1  0  0  0  0
 18 43  1  0  0  0  0
 19 44  1  0  0  0  0
 19 45  1  0  0  0  0
 20 46  1  0  0  0  0
 21 47  1  0  0  0  0
 21 48  1  0  0  0  0
 22 49  1  0  0  0  0
 22 50  1  0  0  0  0
 23 51  1  0  0  0  0
 23 52  1  0  0  0  0
 24 53  1  0  0  0  0
 24 54  1  0  0  0  0
 25 55  1  0  0  0  0
 25 56  1  0  0  0  0
 26 57  1  0  0  0  0
 27 58  1  0  0  0  0
 27 59  1  0  0  0  0
 27 60  1  0  0  0  0
M  CHG  2  27   1  28  -1
M  END
$$$$
