@<TRIPOS>MOLECULE
AVX101121_0
   67    70     0     0     0
SMALL
NO_CHARGES

@<TRIPOS>ATOM
      1 C1         -0.4966   -2.0341    0.4940 C.ar      1 MOL         0.0000
      2 C2          0.3500   -1.0275    0.0392 C.ar      1 MOL         0.0000
      3 C3          6.5379   -4.3608    4.4293 C.ar      1 MOL         0.0000
      4 C4         -0.0479   -3.3542    0.5448 C.ar      1 MOL         0.0000
      5 C5          1.6484   -1.3369   -0.3665 C.ar      1 MOL         0.0000
      6 C6          6.1331   -4.1304    3.1145 C.ar      1 MOL         0.0000
      7 C7          6.2062   -9.4982    0.8341 C.ar      1 MOL         0.0000
      8 C8          5.8591   -8.0799    2.7589 C.ar      1 MOL         0.0000
      9 C9          7.8931   -4.3257    4.7581 C.ar      1 MOL         0.0000
     10 C10         7.5667   -9.5705    1.1326 C.ar      1 MOL         0.0000
     11 C11         7.2197   -8.1522    3.0575 C.ar      1 MOL         0.0000
     12 C12         1.7243   -5.0072    0.1848 C.ar      1 MOL         0.0000
     13 C13         3.4207   -2.9899   -0.7267 C.ar      1 MOL         0.0000
     14 C14         1.2560   -3.6839    0.1403 C.ar      1 MOL         0.0000
     15 C15         2.1168   -2.6602   -0.3222 C.ar      1 MOL         0.0000
     16 C16         3.0228   -5.3167   -0.2210 C.ar      1 MOL         0.0000
     17 C17         8.4385   -3.8299    2.4573 C.ar      1 MOL         0.0000
     18 C18         5.3523   -8.7529    1.6472 C.ar      1 MOL         0.0000
     19 C19         7.0833   -3.8649    2.1285 C.ar      1 MOL         0.0000
     20 C20         3.8693   -4.3100   -0.6758 C.ar      1 MOL         0.0000
     21 C21         8.0735   -8.8975    2.2443 C.ar      1 MOL         0.0000
     22 C22         8.8433   -4.0603    3.7721 C.ar      1 MOL         0.0000
     23 C23         3.4670   -6.7028   -0.1589 C.2       1 MOL         0.0000
     24 C24         9.4485   -3.5528    1.4166 C.2       1 MOL         0.0000
     25 C25         7.3836   -5.7091   -0.3996 C.3       1 MOL         0.0000
     26 C26         9.8522   -8.2571    3.6873 C.3       1 MOL         0.0000
     27 C27        10.4814   -4.2797    5.4822 C.3       1 MOL         0.0000
     28 C28         3.8877   -8.6755    1.3263 C.3       1 MOL         0.0000
     29 C29         6.6185   -3.6221    0.7228 C.3       1 MOL         0.0000
     30 C30         5.2643   -4.6147   -1.1160 C.3       1 MOL         0.0000
     31 N1          3.4551   -7.3154    1.0983 N.am      1 MOL         0.0000
     32 N2          6.1926   -4.8833    0.0153 N.4       1 MOL         0.0000
     33 O1          9.9504   -4.5425    0.7675 O.co2     1 MOL         0.0000
     34 O2          3.8539   -7.2857   -1.1857 O.2       1 MOL         0.0000
     35 O3          9.7884   -2.3321    1.1987 O.co2     1 MOL         0.0000
     36 O4          9.4010   -8.9693    2.5362 O.3       1 MOL         0.0000
     37 O5         10.1623   -4.0327    4.1146 O.3       1 MOL         0.0000
     38 H1         -1.5072   -1.7928    0.8103 H         1 MOL         0.0000
     39 H2          0.0004    0.0001    0.0009 H         1 MOL         0.0000
     40 H3          5.7979   -4.5663    5.1971 H         1 MOL         0.0000
     41 H4         -0.7270   -4.1248    0.9039 H         1 MOL         0.0000
     42 H5          2.2925   -0.5337   -0.7185 H         1 MOL         0.0000
     43 H6          5.0751   -4.1597    2.8679 H         1 MOL         0.0000
     44 H7          5.8200  -10.0256   -0.0340 H         1 MOL         0.0000
     45 H8          5.2012   -7.4967    3.3980 H         1 MOL         0.0000
     46 H9          8.2010   -4.5066    5.7846 H         1 MOL         0.0000
     47 H10         8.2269  -10.1531    0.4954 H         1 MOL         0.0000
     48 H11         7.6082   -7.6261    3.9249 H         1 MOL         0.0000
     49 H12         1.0697   -5.8020    0.5395 H         1 MOL         0.0000
     50 H13         4.0924   -2.2111   -1.0842 H         1 MOL         0.0000
     51 H14         7.9458   -5.1361   -1.1393 H         1 MOL         0.0000
     52 H15         7.9857   -5.8982    0.4911 H         1 MOL         0.0000
     53 H16         7.0107   -6.6420   -0.8267 H         1 MOL         0.0000
     54 H17        10.9293   -8.3986    3.8052 H         1 MOL         0.0000
     55 H18         9.3266   -8.6237    4.5727 H         1 MOL         0.0000
     56 H19         9.6391   -7.1939    3.5536 H         1 MOL         0.0000
     57 H20        11.5642   -4.2287    5.6195 H         1 MOL         0.0000
     58 H21        10.1129   -5.2674    5.7706 H         1 MOL         0.0000
     59 H22        10.0015   -3.5187    6.1022 H         1 MOL         0.0000
     60 H23         3.6581   -9.2576    0.4272 H         1 MOL         0.0000
     61 H24         3.2843   -9.0863    2.1426 H         1 MOL         0.0000
     62 H25         5.7587   -2.9440    0.7017 H         1 MOL         0.0000
     63 H26         7.4122   -3.1735    0.1157 H         1 MOL         0.0000
     64 H27         5.2975   -5.5018   -1.7615 H         1 MOL         0.0000
     65 H28         5.6983   -3.7803   -1.6818 H         1 MOL         0.0000
     66 H29         3.1891   -6.7729    1.9136 H         1 MOL         0.0000
     67 H30         5.6796   -5.4466    0.7131 H         1 MOL         0.0000
@<TRIPOS>BOND
     1    1    2 ar
     2    1    4 ar
     3    2    5 ar
     4    3    6 ar
     5    3    9 ar
     6    4   14 ar
     7    5   15 ar
     8    6   19 ar
     9    7   10 ar
    10    7   18 ar
    11    8   11 ar
    12    8   18 ar
    13    9   22 ar
    14   10   21 ar
    15   11   21 ar
    16   12   14 ar
    17   12   16 ar
    18   13   15 ar
    19   13   20 ar
    20   14   15 ar
    21   16   20 ar
    22   16   23 1
    23   17   19 ar
    24   17   22 ar
    25   17   24 1
    26   18   28 1
    27   19   29 1
    28   20   30 1
    29   21   36 1
    30   22   37 1
    31   23   31 am
    32   23   34 2
    33   24   33 1
    34   24   35 2
    35   25   32 1
    36   26   36 1
    37   27   37 1
    38   28   31 1
    39   29   32 1
    40   30   32 1
    41    1   38 1
    42    2   39 1
    43    3   40 1
    44    4   41 1
    45    5   42 1
    46    6   43 1
    47    7   44 1
    48    8   45 1
    49    9   46 1
    50   10   47 1
    51   11   48 1
    52   12   49 1
    53   13   50 1
    54   25   51 1
    55   25   52 1
    56   25   53 1
    57   26   54 1
    58   26   55 1
    59   26   56 1
    60   27   57 1
    61   27   58 1
    62   27   59 1
    63   28   60 1
    64   28   61 1
    65   29   62 1
    66   29   63 1
    67   30   64 1
    68   30   65 1
    69   31   66 1
    70   32   67 1
