AVX17260_0
  -OEChem-04011314523D

 35 38  0     1  0  0  0  0  0999 V2000
   -0.8238    4.2076   -0.5556 C   0  0  0  0  0  0  0  0  0  0  0  0
   -1.4699    4.7483   -1.6825 C   0  0  0  0  0  0  0  0  0  0  0  0
    0.5542    3.9679   -0.5646 C   0  0  0  0  0  0  0  0  0  0  0  0
    5.9090    5.0760   -2.0994 C   0  0  0  0  0  0  0  0  0  0  0  0
   -0.7500    5.0579   -2.8377 C   0  0  0  0  0  0  0  0  0  0  0  0
    7.2453    4.6864   -2.2181 C   0  0  0  0  0  0  0  0  0  0  0  0
    5.5393    3.4269   -0.3467 C   0  0  0  0  0  0  0  0  0  0  0  0
    1.2619    4.2805   -1.7104 C   0  0  0  0  0  0  0  0  0  0  0  0
    5.0610    4.4499   -1.1690 C   0  0  0  0  0  0  0  0  0  0  0  0
    0.6082    4.8117   -2.8202 C   0  0  0  0  0  0  0  0  0  0  0  0
    7.6927    3.6739   -1.3945 C   0  0  0  0  0  0  0  0  0  0  0  0
    6.8626    3.0611   -0.4838 C   0  0  0  0  0  0  0  0  0  0  0  0
    2.8167    4.6719   -3.4550 C   0  0  0  0  0  0  0  0  0  0  0  0
    4.6724    2.7564    0.6356 C   0  0  0  0  0  0  0  0  0  0  0  0
    8.8257    2.1628   -0.3386 C   0  0  0  0  0  0  0  0  0  0  0  0
    2.7241    4.1246   -2.0173 C   0  0  1  0  0  0  0  0  0  0  0  0
    3.6274    4.9056   -1.0784 C   0  0  0  0  0  0  0  0  0  0  0  0
    1.5231    5.0390   -3.8417 N   0  0  0  0  0  0  0  0  0  0  0  0
    4.6002    3.2368    1.8284 O   0  5  0  0  0  0  0  0  0  0  0  0
    3.8389    4.7599   -4.1183 O   0  0  0  0  0  0  0  0  0  0  0  0
    4.0146    1.7111    0.2704 O   0  0  0  0  0  0  0  0  0  0  0  0
    8.9546    3.1652   -1.3677 O   0  0  0  0  0  0  0  0  0  0  0  0
    7.5008    2.0918    0.2270 O   0  0  0  0  0  0  0  0  0  0  0  0
   -1.4048    3.9720    0.3322 H   0  0  0  0  0  0  0  0  0  0  0  0
   -2.5416    4.9257   -1.6511 H   0  0  0  0  0  0  0  0  0  0  0  0
    1.0459    3.5465    0.3052 H   0  0  0  0  0  0  0  0  0  0  0  0
    5.5289    5.8719   -2.7355 H   0  0  0  0  0  0  0  0  0  0  0  0
   -1.2450    5.4737   -3.7077 H   0  0  0  0  0  0  0  0  0  0  0  0
    7.9025    5.1666   -2.9341 H   0  0  0  0  0  0  0  0  0  0  0  0
    9.0770    1.1858   -0.7671 H   0  0  0  0  0  0  0  0  0  0  0  0
    9.5379    2.3894    0.4632 H   0  0  0  0  0  0  0  0  0  0  0  0
    2.9887    3.0616   -2.0380 H   0  0  0  0  0  0  0  0  0  0  0  0
    3.2721    4.7990   -0.0456 H   0  0  0  0  0  0  0  0  0  0  0  0
    3.5667    5.9769   -1.3087 H   0  0  0  0  0  0  0  0  0  0  0  0
    1.2841    5.4212   -4.7491 H   0  0  0  0  0  0  0  0  0  0  0  0
  1  2  1  0  0  0  0
  1  3  2  0  0  0  0
  2  5  2  0  0  0  0
  3  8  1  0  0  0  0
  4  6  2  0  0  0  0
  4  9  1  0  0  0  0
  5 10  1  0  0  0  0
  6 11  1  0  0  0  0
  7  9  2  0  0  0  0
  7 12  1  0  0  0  0
  7 14  1  0  0  0  0
  8 10  2  0  0  0  0
  8 16  1  0  0  0  0
  9 17  1  0  0  0  0
 10 18  1  0  0  0  0
 11 12  2  0  0  0  0
 11 22  1  0  0  0  0
 12 23  1  0  0  0  0
 13 16  1  0  0  0  0
 13 18  1  0  0  0  0
 13 20  2  0  0  0  0
 14 19  1  0  0  0  0
 14 21  2  0  0  0  0
 15 22  1  0  0  0  0
 15 23  1  0  0  0  0
 16 17  1  0  0  0  0
  1 24  1  0  0  0  0
  2 25  1  0  0  0  0
  3 26  1  0  0  0  0
  4 27  1  0  0  0  0
  5 28  1  0  0  0  0
  6 29  1  0  0  0  0
 15 30  1  0  0  0  0
 15 31  1  0  0  0  0
 16 32  1  0  0  0  0
 17 33  1  0  0  0  0
 17 34  1  0  0  0  0
 18 35  1  0  0  0  0
M  CHG  1  19  -1
M  END
$$$$
