@<TRIPOS>MOLECULE
AVX15988_0
   19    20     0     0     0
SMALL
NO_CHARGES

@<TRIPOS>ATOM
      1 C1         -0.6742   -1.4085   -1.4795 C.ar      1 MOL         0.0000
      2 C2          0.2175   -0.4688   -0.9561 C.ar      1 MOL         0.0000
      3 C3          1.6756   -0.7186   -2.8730 C.ar      1 MOL         0.0000
      4 C4          0.7916   -1.6713   -3.4245 C.ar      1 MOL         0.0000
      5 C5         -0.3685   -1.9990   -2.7163 C.ar      1 MOL         0.0000
      6 C6          1.3776   -0.1269   -1.6421 C.ar      1 MOL         0.0000
      7 C7         -0.0585   -3.1484   -4.8253 C.2       1 MOL         0.0000
      8 C8          2.9294   -0.3418   -3.6025 C.3       1 MOL         0.0000
      9 N1          0.9552   -2.3379   -4.6301 N.2       1 MOL         0.0000
     10 N2         -0.1986   -3.9484   -5.9158 N.pl3     1 MOL         0.0000
     11 S1         -1.2595   -3.1758   -3.6075 S.3       1 MOL         0.0000
     12 Cl1         2.4317    1.0460   -0.9341 Cl        1 MOL         0.0000
     13 H1         -1.5776   -1.6709   -0.9377 H         1 MOL         0.0000
     14 H2         -0.0164   -0.0085    0.0015 H         1 MOL         0.0000
     15 H3          2.7351    0.5038   -4.2693 H         1 MOL         0.0000
     16 H4          3.7221   -0.0638   -2.9000 H         1 MOL         0.0000
     17 H5          3.3038   -1.1823   -4.1966 H         1 MOL         0.0000
     18 H6          0.4753   -3.9282   -6.6887 H         1 MOL         0.0000
     19 H7         -1.0306   -4.5326   -6.0515 H         1 MOL         0.0000
@<TRIPOS>BOND
     1    1    2 ar
     2    1    5 ar
     3    2    6 ar
     4    3    4 ar
     5    3    6 ar
     6    3    8 1
     7    4    5 ar
     8    4    9 1
     9    5   11 1
    10    6   12 1
    11    7    9 2
    12    7   10 1
    13    7   11 1
    14    1   13 1
    15    2   14 1
    16    8   15 1
    17    8   16 1
    18    8   17 1
    19   10   18 1
    20   10   19 1
