AVX101124_1
  -OEChem-04011314513D

 57 60  0     1  0  0  0  0  0999 V2000
    2.6138   -0.5418   -3.0073 C   0  0  0  0  0  0  0  0  0  0  0  0
    1.4909   -1.3596   -3.1976 C   0  0  0  0  0  0  0  0  0  0  0  0
    2.7287    0.2556   -1.8656 C   0  0  0  0  0  0  0  0  0  0  0  0
    4.1253    2.9265   -0.3170 C   0  0  0  0  0  0  0  0  0  0  0  0
    0.4686   -1.3912   -2.2482 C   0  0  0  0  0  0  0  0  0  0  0  0
    5.4182    3.1347   -0.8031 C   0  0  0  0  0  0  0  0  0  0  0  0
    1.7073    0.2221   -0.9263 C   0  0  0  0  0  0  0  0  0  0  0  0
    3.8362    1.8157    0.4951 C   0  0  0  0  0  0  0  0  0  0  0  0
    4.8368    0.9003    0.8303 C   0  0  0  0  0  0  0  0  0  0  0  0
    0.5861   -0.5906   -1.1214 C   0  0  0  0  0  0  0  0  0  0  0  0
    6.3880    2.2161   -0.4574 C   0  0  0  0  0  0  0  0  0  0  0  0
    6.1051    1.1289    0.3375 C   0  0  0  0  0  0  0  0  0  0  0  0
    1.5493    0.9442    0.3347 C   0  0  0  0  0  0  0  0  0  0  0  0
    2.4934    1.6513    0.9658 C   0  0  0  0  0  0  0  0  0  0  0  0
    4.5706   -0.2728    1.6814 C   0  0  0  0  0  0  0  0  0  0  0  0
   -1.7542    2.2282    1.3428 C   0  0  0  0  0  0  0  0  0  0  0  0
   -0.3706   -0.5185    0.0316 C   0  0  0  0  0  0  0  0  0  0  0  0
    8.2032    1.0696   -0.1882 C   0  0  0  0  0  0  0  0  0  0  0  0
    0.1425    0.6943    0.8317 C   0  0  2  0  0  0  0  0  0  0  0  0
   -2.4099    3.4977    0.8241 C   0  0  0  0  0  0  0  0  0  0  0  0
   -3.6299    3.9356    1.6332 C   0  0  0  0  0  0  0  0  0  0  0  0
   -4.2615    5.2211    1.0874 C   0  0  0  0  0  0  0  0  0  0  0  0
   -5.4652    5.6468    1.9339 C   0  0  0  0  0  0  0  0  0  0  0  0
   -6.1287    6.9279    1.4436 C   0  0  0  0  0  0  0  0  0  0  0  0
   -0.6538    1.8731    0.5762 N   0  0  0  0  0  0  0  0  0  0  0  0
   -6.6277    6.7623    0.0582 N   0  3  0  0  0  0  0  0  0  0  0  0
    4.7089   -0.1561    2.9557 O   0  5  0  0  0  0  0  0  0  0  0  0
    4.2093   -1.3737    1.1211 O   0  0  0  0  0  0  0  0  0  0  0  0
   -2.1765    1.5996    2.3094 O   0  0  0  0  0  0  0  0  0  0  0  0
    7.6950    2.2547   -0.8342 O   0  0  0  0  0  0  0  0  0  0  0  0
    7.1995    0.3506    0.5576 O   0  0  0  0  0  0  0  0  0  0  0  0
    3.4020   -0.5290   -3.7551 H   0  0  0  0  0  0  0  0  0  0  0  0
    1.4197   -1.9764   -4.0894 H   0  0  0  0  0  0  0  0  0  0  0  0
    3.6024    0.8855   -1.7341 H   0  0  0  0  0  0  0  0  0  0  0  0
    3.3459    3.6398   -0.5771 H   0  0  0  0  0  0  0  0  0  0  0  0
   -0.3944   -2.0330   -2.3913 H   0  0  0  0  0  0  0  0  0  0  0  0
    5.6445    3.9900   -1.4298 H   0  0  0  0  0  0  0  0  0  0  0  0
    2.2255    2.1098    1.9160 H   0  0  0  0  0  0  0  0  0  0  0  0
   -1.4059   -0.3987   -0.3040 H   0  0  0  0  0  0  0  0  0  0  0  0
   -0.2819   -1.4355    0.6254 H   0  0  0  0  0  0  0  0  0  0  0  0
    8.6173    0.4029   -0.9533 H   0  0  0  0  0  0  0  0  0  0  0  0
    9.0072    1.3617    0.4971 H   0  0  0  0  0  0  0  0  0  0  0  0
    0.1008    0.4990    1.9084 H   0  0  0  0  0  0  0  0  0  0  0  0
   -1.6670    4.3032    0.7919 H   0  0  0  0  0  0  0  0  0  0  0  0
   -2.7231    3.2960   -0.2077 H   0  0  0  0  0  0  0  0  0  0  0  0
   -4.3758    3.1321    1.5969 H   0  0  0  0  0  0  0  0  0  0  0  0
   -3.3589    4.0714    2.6871 H   0  0  0  0  0  0  0  0  0  0  0  0
   -4.5823    5.0587    0.0512 H   0  0  0  0  0  0  0  0  0  0  0  0
   -3.5140    6.0210    1.0726 H   0  0  0  0  0  0  0  0  0  0  0  0
   -6.2153    4.8465    1.9153 H   0  0  0  0  0  0  0  0  0  0  0  0
   -5.1563    5.7651    2.9799 H   0  0  0  0  0  0  0  0  0  0  0  0
   -6.9848    7.2126    2.0622 H   0  0  0  0  0  0  0  0  0  0  0  0
   -5.4102    7.7525    1.4186 H   0  0  0  0  0  0  0  0  0  0  0  0
   -0.3950    2.4710   -0.2032 H   0  0  0  0  0  0  0  0  0  0  0  0
   -6.6424    5.7726   -0.2126 H   0  0  0  0  0  0  0  0  0  0  0  0
   -6.0308    7.2626   -0.6103 H   0  0  0  0  0  0  0  0  0  0  0  0
   -7.5817    7.1287   -0.0362 H   0  0  0  0  0  0  0  0  0  0  0  0
  1  2  1  0  0  0  0
  1  3  2  0  0  0  0
  2  5  2  0  0  0  0
  3  7  1  0  0  0  0
  4  6  2  0  0  0  0
  4  8  1  0  0  0  0
  5 10  1  0  0  0  0
  6 11  1  0  0  0  0
  7 10  2  0  0  0  0
  7 13  1  0  0  0  0
  8  9  2  0  0  0  0
  8 14  1  0  0  0  0
  9 12  1  0  0  0  0
  9 15  1  0  0  0  0
 10 17  1  0  0  0  0
 11 12  2  0  0  0  0
 11 30  1  0  0  0  0
 12 31  1  0  0  0  0
 13 14  2  0  0  0  0
 13 19  1  0  0  0  0
 15 27  1  0  0  0  0
 15 28  2  0  0  0  0
 16 20  1  0  0  0  0
 16 25  1  0  0  0  0
 16 29  2  0  0  0  0
 17 19  1  0  0  0  0
 18 30  1  0  0  0  0
 18 31  1  0  0  0  0
 19 25  1  0  0  0  0
 20 21  1  0  0  0  0
 21 22  1  0  0  0  0
 22 23  1  0  0  0  0
 23 24  1  0  0  0  0
 24 26  1  0  0  0  0
  1 32  1  0  0  0  0
  2 33  1  0  0  0  0
  3 34  1  0  0  0  0
  4 35  1  0  0  0  0
  5 36  1  0  0  0  0
  6 37  1  0  0  0  0
 14 38  1  0  0  0  0
 17 39  1  0  0  0  0
 17 40  1  0  0  0  0
 18 41  1  0  0  0  0
 18 42  1  0  0  0  0
 19 43  1  0  0  0  0
 20 44  1  0  0  0  0
 20 45  1  0  0  0  0
 21 46  1  0  0  0  0
 21 47  1  0  0  0  0
 22 48  1  0  0  0  0
 22 49  1  0  0  0  0
 23 50  1  0  0  0  0
 23 51  1  0  0  0  0
 24 52  1  0  0  0  0
 24 53  1  0  0  0  0
 25 54  1  0  0  0  0
 26 55  1  0  0  0  0
 26 56  1  0  0  0  0
 26 57  1  0  0  0  0
M  CHG  2  26   1  27  -1
M  END
$$$$
