@<TRIPOS>MOLECULE
AVX17269_1
   27    29     0     0     0
SMALL
NO_CHARGES

@<TRIPOS>ATOM
      1 C1          1.3313   -0.5065   -0.0808 C.ar      1 MOL         0.0000
      2 C2         -1.4722   -0.4986    0.5277 C.ar      1 MOL         0.0000
      3 C3          0.5438    0.6246   -0.1805 C.ar      1 MOL         0.0000
      4 C4          0.6639   -1.6404    0.3387 C.ar      1 MOL         0.0000
      5 C5         -0.8149    0.6452    0.1104 C.ar      1 MOL         0.0000
      6 C6         -0.6917   -1.6370    0.6330 C.ar      1 MOL         0.0000
      7 C7          0.8747    1.9651   -0.5828 C.2       1 MOL         0.0000
      8 C8         -2.1343    5.3653   -0.6997 C.2       1 MOL         0.0000
      9 C9          0.0815   -3.6372    0.9461 C.3       1 MOL         0.0000
     10 C10        -0.3853    2.7878   -0.4626 C.3       1 MOL         0.0000
     11 C11        -2.0828    4.1888   -1.6815 C.3       1 MOL         0.0000
     12 C12        -0.7683    3.4344   -1.7791 C.3       1 MOL         0.0000
     13 O1         -3.2539    5.6089   -0.1719 O.co2     1 MOL         0.0000
     14 O2          1.9729    2.3355   -0.9480 O.2       1 MOL         0.0000
     15 O3         -1.0241    5.9469   -0.5290 O.co2     1 MOL         0.0000
     16 O4          1.2231   -2.8702    0.5130 O.3       1 MOL         0.0000
     17 O5         -1.1337   -2.8649    1.0244 O.3       1 MOL         0.0000
     18 O6         -1.4251    1.8620   -0.0596 O.3       1 MOL         0.0000
     19 H1          2.3877   -0.5061   -0.3131 H         1 MOL         0.0000
     20 H2         -2.5303   -0.5037    0.7564 H         1 MOL         0.0000
     21 H3         -0.0734   -4.4618    0.2408 H         1 MOL         0.0000
     22 H4          0.2952   -4.0572    1.9357 H         1 MOL         0.0000
     23 H5         -0.2633    3.5301    0.3335 H         1 MOL         0.0000
     24 H6         -2.3051    4.6076   -2.6711 H         1 MOL         0.0000
     25 H7         -2.8964    3.4944   -1.4368 H         1 MOL         0.0000
     26 H8          0.0466    4.0866   -2.0947 H         1 MOL         0.0000
     27 H9         -0.8593    2.6379   -2.5196 H         1 MOL         0.0000
@<TRIPOS>BOND
     1    1    3 ar
     2    1    4 ar
     3    2    5 ar
     4    2    6 ar
     5    3    5 ar
     6    3    7 1
     7    4    6 ar
     8    4   16 1
     9    5   18 1
    10    6   17 1
    11    7   10 1
    12    7   14 2
    13    8   11 1
    14    8   13 1
    15    8   15 2
    16    9   16 1
    17    9   17 1
    18   10   12 1
    19   10   18 1
    20   11   12 1
    21    1   19 1
    22    2   20 1
    23    9   21 1
    24    9   22 1
    25   10   23 1
    26   11   24 1
    27   11   25 1
    28   12   26 1
    29   12   27 1
