@<TRIPOS>MOLECULE
AVX17378_0
   30    31     0     0     0
SMALL
NO_CHARGES

@<TRIPOS>ATOM
      1 C1          1.8851   -1.0363   -0.1124 C.ar      1 MOL         0.0000
      2 C2          0.8066   -0.4630    0.5610 C.ar      1 MOL         0.0000
      3 C3          2.9210   -1.6309    0.6081 C.ar      1 MOL         0.0000
      4 C4          0.7638   -0.4841    1.9551 C.ar      1 MOL         0.0000
      5 C5          1.1075   -1.4227    6.1248 C.2       1 MOL         0.0000
      6 C6          2.8783   -1.6520    2.0022 C.ar      1 MOL         0.0000
      7 C7          1.7997   -1.0786    2.6757 C.ar      1 MOL         0.0000
      8 C8          2.3120   -0.6990    6.0391 C.2       1 MOL         0.0000
      9 C9          0.7563   -1.6609    4.8185 C.2       1 MOL         0.0000
     10 C10         3.9799   -2.2834    2.7197 C.2       1 MOL         0.0000
     11 C11        -0.4068   -2.3715    4.2519 C.3       1 MOL         0.0000
     12 C12         3.1284   -0.1821    7.1501 C.3       1 MOL         0.0000
     13 N1          2.7000   -0.4912    4.7780 N.2       1 MOL         0.0000
     14 N2          1.7339   -1.0880    4.0593 N.pl3     1 MOL         0.0000
     15 N3          3.8705   -3.6401    3.0016 N.am      1 MOL         0.0000
     16 O1          4.9719   -1.6303    3.0808 O.2       1 MOL         0.0000
     17 O2          4.2948   -0.9894    7.3198 O.3       1 MOL         0.0000
     18 H1          1.9187   -1.0200   -1.1979 H         1 MOL         0.0000
     19 H2         -0.0000   -0.0005   -0.0003 H         1 MOL         0.0000
     20 H3          3.7557   -2.0747    0.0714 H         1 MOL         0.0000
     21 H4         -0.0837   -0.0328    2.4658 H         1 MOL         0.0000
     22 H5          0.5686   -1.7285    7.0101 H         1 MOL         0.0000
     23 H6         -1.2493   -1.6816    4.0811 H         1 MOL         0.0000
     24 H7         -0.1679   -2.8538    3.2887 H         1 MOL         0.0000
     25 H8         -0.7629   -3.1776    4.9161 H         1 MOL         0.0000
     26 H9          3.4602    0.8586    6.9785 H         1 MOL         0.0000
     27 H10         2.5746   -0.1800    8.1070 H         1 MOL         0.0000
     28 H11         3.0417   -4.1441    2.7055 H         1 MOL         0.0000
     29 H12         4.6036   -4.1363    3.4980 H         1 MOL         0.0000
     30 H13         4.7884   -0.6036    8.0588 H         1 MOL         0.0000
@<TRIPOS>BOND
     1    1    2 ar
     2    1    3 ar
     3    2    4 ar
     4    3    6 ar
     5    4    7 ar
     6    5    8 1
     7    5    9 2
     8    6    7 ar
     9    6   10 1
    10    7   14 1
    11    8   12 1
    12    8   13 2
    13    9   11 1
    14    9   14 1
    15   10   15 am
    16   10   16 2
    17   12   17 1
    18   13   14 1
    19    1   18 1
    20    2   19 1
    21    3   20 1
    22    4   21 1
    23    5   22 1
    24   11   23 1
    25   11   24 1
    26   11   25 1
    27   12   26 1
    28   12   27 1
    29   15   28 1
    30   15   29 1
    31   17   30 1
