@<TRIPOS>MOLECULE
AVX17685_1
   44    47     0     0     0
SMALL
NO_CHARGES

@<TRIPOS>ATOM
      1 C1          2.8253    0.7872   -1.3301 C.ar      1 MOL         0.0000
      2 C2          2.4894   -0.3156   -2.1122 C.ar      1 MOL         0.0000
      3 C3          2.0400    1.1282   -0.2301 C.ar      1 MOL         0.0000
      4 C4          1.3699   -1.0859   -1.7935 C.ar      1 MOL         0.0000
      5 C5         -3.0197   -4.2113   -0.3041 C.ar      1 MOL         0.0000
      6 C6         -3.3160   -5.3675   -1.0298 C.ar      1 MOL         0.0000
      7 C7          0.9081    0.3658    0.0838 C.ar      1 MOL         0.0000
      8 C8         -4.1290   -2.8280   -1.9726 C.ar      1 MOL         0.0000
      9 C9          0.5705   -0.7605   -0.6891 C.ar      1 MOL         0.0000
     10 C10        -3.4239   -2.9488   -0.7727 C.ar      1 MOL         0.0000
     11 C11        -4.0132   -5.2208   -2.2114 C.ar      1 MOL         0.0000
     12 C12        -4.4090   -3.9851   -2.6701 C.ar      1 MOL         0.0000
     13 C13         0.1093    0.7656    1.2706 C.2       1 MOL         0.0000
     14 C14        -4.5642   -1.5185   -2.4842 C.2       1 MOL         0.0000
     15 C15        -0.6184   -1.6151   -0.3465 C.3       1 MOL         0.0000
     16 C16        -1.9798    0.5208   -0.1086 C.3       1 MOL         0.0000
     17 C17        -5.0658   -5.4863   -4.0832 C.3       1 MOL         0.0000
     18 C18        -2.1153    1.0452    2.3158 C.3       1 MOL         0.0000
     19 C19        -3.0821   -1.7365    0.0425 C.3       1 MOL         0.0000
     20 N1         -1.2871    0.7410    1.1581 N.am      1 MOL         0.0000
     21 N2         -1.9566   -0.9293   -0.5451 N.4       1 MOL         0.0000
     22 O1         -5.7214   -1.0713   -2.1382 O.co2     1 MOL         0.0000
     23 O2          0.7267    1.0892    2.2844 O.2       1 MOL         0.0000
     24 O3         -3.7738   -0.8628   -3.2614 O.co2     1 MOL         0.0000
     25 O4         -4.3895   -6.2270   -3.0467 O.3       1 MOL         0.0000
     26 O5         -5.0823   -4.0630   -3.8501 O.3       1 MOL         0.0000
     27 H1          3.7002    1.3812   -1.5770 H         1 MOL         0.0000
     28 H2          3.0974   -0.5747   -2.9741 H         1 MOL         0.0000
     29 H3          2.3267    1.9819    0.3791 H         1 MOL         0.0000
     30 H4          1.1240   -1.9419   -2.4175 H         1 MOL         0.0000
     31 H5         -2.4715   -4.2967    0.6312 H         1 MOL         0.0000
     32 H6         -3.0062   -6.3428   -0.6721 H         1 MOL         0.0000
     33 H7         -0.6283   -2.5074   -0.9816 H         1 MOL         0.0000
     34 H8         -0.5838   -1.9723    0.6870 H         1 MOL         0.0000
     35 H9         -3.0320    0.8294   -0.0185 H         1 MOL         0.0000
     36 H10        -1.5086    1.1101   -0.9088 H         1 MOL         0.0000
     37 H11        -4.5628   -5.6796   -5.0377 H         1 MOL         0.0000
     38 H12        -6.1000   -5.8427   -4.1515 H         1 MOL         0.0000
     39 H13        -2.3257    2.1171    2.3559 H         1 MOL         0.0000
     40 H14        -1.6013    0.7529    3.2355 H         1 MOL         0.0000
     41 H15        -3.0625    0.5026    2.2561 H         1 MOL         0.0000
     42 H16        -3.9410   -1.0624    0.1288 H         1 MOL         0.0000
     43 H17        -2.7736   -2.0154    1.0558 H         1 MOL         0.0000
     44 H18        -2.1134   -0.9287   -1.5680 H         1 MOL         0.0000
@<TRIPOS>BOND
     1    1    2 ar
     2    1    3 ar
     3    2    4 ar
     4    3    7 ar
     5    4    9 ar
     6    5    6 ar
     7    5   10 ar
     8    6   11 ar
     9    7    9 ar
    10    7   13 1
    11    8   10 ar
    12    8   12 ar
    13    8   14 1
    14    9   15 1
    15   10   19 1
    16   11   12 ar
    17   11   25 1
    18   12   26 1
    19   13   20 am
    20   13   23 2
    21   14   22 1
    22   14   24 2
    23   15   21 1
    24   16   20 1
    25   16   21 1
    26   17   25 1
    27   17   26 1
    28   18   20 1
    29   19   21 1
    30    1   27 1
    31    2   28 1
    32    3   29 1
    33    4   30 1
    34    5   31 1
    35    6   32 1
    36   15   33 1
    37   15   34 1
    38   16   35 1
    39   16   36 1
    40   17   37 1
    41   17   38 1
    42   18   39 1
    43   18   40 1
    44   18   41 1
    45   19   42 1
    46   19   43 1
    47   21   44 1
