@<TRIPOS>MOLECULE
AVX101124_3
   57    60     0     0     0
SMALL
NO_CHARGES

@<TRIPOS>ATOM
      1 C1         -2.5732   -3.1272    1.4546 C.ar      1 MOL         0.0000
      2 C2         -2.3121   -3.2659    0.0841 C.ar      1 MOL         0.0000
      3 C3         -1.9935   -2.0891    2.1885 C.ar      1 MOL         0.0000
      4 C4         -2.0789   -0.1350    4.8764 C.ar      1 MOL         0.0000
      5 C5         -1.4673   -2.3684   -0.5703 C.ar      1 MOL         0.0000
      6 C6         -2.6276   -0.8287    5.9576 C.ar      1 MOL         0.0000
      7 C7         -1.1565   -1.1976    1.5316 C.ar      1 MOL         0.0000
      8 C8         -0.7804   -0.4271    4.4233 C.ar      1 MOL         0.0000
      9 C9         -0.0156   -1.4163    5.0463 C.ar      1 MOL         0.0000
     10 C10        -0.9019   -1.3354    0.1633 C.ar      1 MOL         0.0000
     11 C11        -1.8517   -1.8006    6.5551 C.ar      1 MOL         0.0000
     12 C12        -0.5807   -2.0866    6.1116 C.ar      1 MOL         0.0000
     13 C13        -0.4350   -0.0272    2.0283 C.2       1 MOL         0.0000
     14 C14        -0.2677    0.3151    3.3105 C.2       1 MOL         0.0000
     15 C15         1.3471   -1.7509    4.5962 C.2       1 MOL         0.0000
     16 C16        -0.1484    3.0163   -0.0258 C.2       1 MOL         0.0000
     17 C17         0.0640   -0.3036   -0.3389 C.3       1 MOL         0.0000
     18 C18        -1.0321   -3.3795    7.7869 C.3       1 MOL         0.0000
     19 C19         0.1425    0.6943    0.8317 C.3       1 MOL         0.0000
     20 C20        -1.2065    4.1015   -0.1403 C.3       1 MOL         0.0000
     21 C21        -0.7030    5.3859   -0.7975 C.3       1 MOL         0.0000
     22 C22        -1.7962    6.4550   -0.9029 C.3       1 MOL         0.0000
     23 C23        -1.2673    7.7191   -1.5876 C.3       1 MOL         0.0000
     24 C24        -2.3158    8.8155   -1.7301 C.3       1 MOL         0.0000
     25 N1         -0.6538    1.8731    0.5762 N.am      1 MOL         0.0000
     26 N2         -2.8172    9.2369   -0.4009 N.4       1 MOL         0.0000
     27 O1          1.4956   -2.6637    3.7010 O.co2     1 MOL         0.0000
     28 O2          2.3417   -1.1192    5.1141 O.co2     1 MOL         0.0000
     29 O3          1.0099    3.1633   -0.4062 O.2       1 MOL         0.0000
     30 O4         -2.2162   -2.5747    7.6133 O.3       1 MOL         0.0000
     31 O5          0.0097   -3.0754    6.8368 O.3       1 MOL         0.0000
     32 H1         -3.2329   -3.8346    1.9497 H         1 MOL         0.0000
     33 H2         -2.7680   -4.0814   -0.4708 H         1 MOL         0.0000
     34 H3         -2.2084   -1.9930    3.2477 H         1 MOL         0.0000
     35 H4         -2.6746    0.6348    4.3903 H         1 MOL         0.0000
     36 H5         -1.2577   -2.4834   -1.6285 H         1 MOL         0.0000
     37 H6         -3.6285   -0.6057    6.3098 H         1 MOL         0.0000
     38 H7          0.2734    1.2367    3.5172 H         1 MOL         0.0000
     39 H8          1.0377   -0.7787   -0.5045 H         1 MOL         0.0000
     40 H9         -0.2805    0.1585   -1.2697 H         1 MOL         0.0000
     41 H10        -0.6430   -3.2180    8.7988 H         1 MOL         0.0000
     42 H11        -1.3072   -4.4351    7.6796 H         1 MOL         0.0000
     43 H12         1.1734    1.0262    0.9940 H         1 MOL         0.0000
     44 H13        -2.0714    3.7091   -0.6878 H         1 MOL         0.0000
     45 H14        -1.5383    4.3321    0.8796 H         1 MOL         0.0000
     46 H15         0.1226    5.7826   -0.1939 H         1 MOL         0.0000
     47 H16        -0.2953    5.1698   -1.7922 H         1 MOL         0.0000
     48 H17        -2.1581    6.7072    0.1013 H         1 MOL         0.0000
     49 H18        -2.6484    6.0560   -1.4627 H         1 MOL         0.0000
     50 H19        -0.4329    8.1207   -0.9996 H         1 MOL         0.0000
     51 H20        -0.8625    7.4615   -2.5742 H         1 MOL         0.0000
     52 H21        -1.9165    9.7077   -2.2212 H         1 MOL         0.0000
     53 H22        -3.1837    8.4527   -2.2888 H         1 MOL         0.0000
     54 H23        -1.6317    1.8640    0.8508 H         1 MOL         0.0000
     55 H24        -2.2100    8.8887    0.3495 H         1 MOL         0.0000
     56 H25        -3.7633    8.8762   -0.2330 H         1 MOL         0.0000
     57 H26        -2.8528   10.2600   -0.3278 H         1 MOL         0.0000
@<TRIPOS>BOND
     1    1    2 ar
     2    1    3 ar
     3    2    5 ar
     4    3    7 ar
     5    4    6 ar
     6    4    8 ar
     7    5   10 ar
     8    6   11 ar
     9    7   10 ar
    10    7   13 1
    11    8    9 ar
    12    8   14 1
    13    9   12 ar
    14    9   15 1
    15   10   17 1
    16   11   12 ar
    17   11   30 1
    18   12   31 1
    19   13   14 2
    20   13   19 1
    21   15   27 1
    22   15   28 2
    23   16   20 1
    24   16   25 am
    25   16   29 2
    26   17   19 1
    27   18   30 1
    28   18   31 1
    29   19   25 1
    30   20   21 1
    31   21   22 1
    32   22   23 1
    33   23   24 1
    34   24   26 1
    35    1   32 1
    36    2   33 1
    37    3   34 1
    38    4   35 1
    39    5   36 1
    40    6   37 1
    41   14   38 1
    42   17   39 1
    43   17   40 1
    44   18   41 1
    45   18   42 1
    46   19   43 1
    47   20   44 1
    48   20   45 1
    49   21   46 1
    50   21   47 1
    51   22   48 1
    52   22   49 1
    53   23   50 1
    54   23   51 1
    55   24   52 1
    56   24   53 1
    57   25   54 1
    58   26   55 1
    59   26   56 1
    60   26   57 1
