AVX17285_0
  -OEChem-04011314523D

 30 32  0     0  0  0  0  0  0999 V2000
   -0.1948   -1.2188   -1.7733 C   0  0  0  0  0  0  0  0  0  0  0  0
    0.0489   -1.0083   -0.4029 C   0  0  0  0  0  0  0  0  0  0  0  0
    0.5479   -4.1853   -6.1991 C   0  0  0  0  0  0  0  0  0  0  0  0
   -0.1402   -2.5032   -2.3253 C   0  0  0  0  0  0  0  0  0  0  0  0
    0.8630   -4.7359   -4.9569 C   0  0  0  0  0  0  0  0  0  0  0  0
   -0.7864   -4.0261   -6.5733 C   0  0  0  0  0  0  0  0  0  0  0  0
    0.3519   -2.0775    0.4422 C   0  0  0  0  0  0  0  0  0  0  0  0
   -1.4906   -4.9683   -4.4629 C   0  0  0  0  0  0  0  0  0  0  0  0
    0.1604   -3.5565   -1.4826 C   0  0  0  0  0  0  0  0  0  0  0  0
   -0.1562   -5.1275   -4.0888 C   0  0  0  0  0  0  0  0  0  0  0  0
   -1.8056   -4.4177   -5.7052 C   0  0  0  0  0  0  0  0  0  0  0  0
    0.4008   -3.3366   -0.1231 C   0  0  0  0  0  0  0  0  0  0  0  0
    0.3033   -4.9945   -1.6833 C   0  0  0  0  0  0  0  0  0  0  0  0
    0.6440   -5.6207   -0.3620 C   0  0  0  0  0  0  0  0  0  0  0  0
    0.1687   -5.6938   -2.8117 C   0  0  0  0  0  0  0  0  0  0  0  0
   -3.2136   -4.2498   -6.0999 C   0  0  0  0  0  0  0  0  0  0  0  0
    0.6826   -4.5427    0.5281 N   0  0  0  0  0  0  0  0  0  0  0  0
   -4.1354   -4.6198   -5.2801 O   0  5  0  0  0  0  0  0  0  0  0  0
    0.8372   -6.8024   -0.1432 O   0  0  0  0  0  0  0  0  0  0  0  0
   -3.4775   -3.7389   -7.2523 O   0  0  0  0  0  0  0  0  0  0  0  0
   -0.4282   -0.3694   -2.4102 H   0  0  0  0  0  0  0  0  0  0  0  0
    0.0012    0.0003   -0.0007 H   0  0  0  0  0  0  0  0  0  0  0  0
    1.3417   -3.8809   -6.8751 H   0  0  0  0  0  0  0  0  0  0  0  0
   -0.3291   -2.6545   -3.3823 H   0  0  0  0  0  0  0  0  0  0  0  0
    1.9078   -4.8533   -4.6791 H   0  0  0  0  0  0  0  0  0  0  0  0
   -1.0211   -3.5956   -7.5433 H   0  0  0  0  0  0  0  0  0  0  0  0
    0.5403   -1.9161    1.4974 H   0  0  0  0  0  0  0  0  0  0  0  0
   -2.2895   -5.2720   -3.7894 H   0  0  0  0  0  0  0  0  0  0  0  0
    0.2882   -6.7757   -2.7526 H   0  0  0  0  0  0  0  0  0  0  0  0
    0.8882   -4.6244    1.5170 H   0  0  0  0  0  0  0  0  0  0  0  0
  1  2  1  0  0  0  0
  1  4  2  0  0  0  0
  2  7  2  0  0  0  0
  3  5  2  0  0  0  0
  3  6  1  0  0  0  0
  4  9  1  0  0  0  0
  5 10  1  0  0  0  0
  6 11  2  0  0  0  0
  7 12  1  0  0  0  0
  8 10  2  0  0  0  0
  8 11  1  0  0  0  0
  9 12  2  0  0  0  0
  9 13  1  0  0  0  0
 10 15  1  0  0  0  0
 11 16  1  0  0  0  0
 12 17  1  0  0  0  0
 13 14  1  0  0  0  0
 13 15  2  0  0  0  0
 14 17  1  0  0  0  0
 14 19  2  0  0  0  0
 16 18  1  0  0  0  0
 16 20  2  0  0  0  0
  1 21  1  0  0  0  0
  2 22  1  0  0  0  0
  3 23  1  0  0  0  0
  4 24  1  0  0  0  0
  5 25  1  0  0  0  0
  6 26  1  0  0  0  0
  7 27  1  0  0  0  0
  8 28  1  0  0  0  0
 15 29  1  0  0  0  0
 17 30  1  0  0  0  0
M  CHG  1  18  -1
M  END
$$$$
