@<TRIPOS>MOLECULE
AVX101139_3
   57    59     0     0     0
SMALL
NO_CHARGES

@<TRIPOS>ATOM
      1 C1         -5.5553    5.0616   -1.1425 C.ar      1 MOL         0.0000
      2 C2         -4.8453    3.9888   -1.6816 C.ar      1 MOL         0.0000
      3 C3         -4.9808    5.8461   -0.1424 C.ar      1 MOL         0.0000
      4 C4         -3.5608    3.7005   -1.2206 C.ar      1 MOL         0.0000
      5 C5         -3.6963    5.5578    0.3186 C.ar      1 MOL         0.0000
      6 C6         -1.1887    2.9561    4.8621 C.ar      1 MOL         0.0000
      7 C7         -1.2846    2.0861    5.9481 C.ar      1 MOL         0.0000
      8 C8         -3.2453    2.0614    3.9638 C.ar      1 MOL         0.0000
      9 C9         -2.9862    4.4850   -0.2205 C.ar      1 MOL         0.0000
     10 C10        -2.1691    2.9438    3.8699 C.ar      1 MOL         0.0000
     11 C11        -2.3608    1.2037    6.0420 C.ar      1 MOL         0.0000
     12 C12        -3.3412    1.1914    5.0498 C.ar      1 MOL         0.0000
     13 C13        -4.2839    2.0438    2.9144 C.2       1 MOL         0.0000
     14 C14        -5.5136   -1.7341    4.7842 C.2       1 MOL         0.0000
     15 C15         1.1103    0.6560    0.5814 C.3       1 MOL         0.0000
     16 C16         0.7443   -0.6054   -0.1725 C.3       1 MOL         0.0000
     17 C17        -1.2033    0.2999    0.7304 C.3       1 MOL         0.0000
     18 C18        -0.1948    1.4212    0.5502 C.3       1 MOL         0.0000
     19 C19        -1.3978    0.4373    8.0769 C.3       1 MOL         0.0000
     20 C20        -1.6048    4.1752    0.2760 C.3       1 MOL         0.0000
     21 C21        -2.0396    3.8909    2.7135 C.3       1 MOL         0.0000
     22 C22        -4.2257   -0.9600    4.5546 C.3       1 MOL         0.0000
     23 C23        -0.3006    2.5132    1.5974 C.3       1 MOL         0.0000
     24 N1         -1.5961    3.2120    1.4393 N.4       1 MOL         0.0000
     25 O1         -5.3048    2.8141    3.0465 O.co2     1 MOL         0.0000
     26 O2         -6.5531   -1.1992    4.3054 O.co2     1 MOL         0.0000
     27 O3         -4.1286    1.2588    1.9082 O.co2     1 MOL         0.0000
     28 O4         -5.3815   -2.8180    5.4186 O.co2     1 MOL         0.0000
     29 O5         -0.6449   -0.8561    0.0870 O.3       1 MOL         0.0000
     30 O6         -2.4417    0.3596    7.1083 O.3       1 MOL         0.0000
     31 O7         -4.3901    0.3249    5.1495 O.3       1 MOL         0.0000
     32 H1         -6.5550    5.2868   -1.5025 H         1 MOL         0.0000
     33 H2         -5.2921    3.3786   -2.4611 H         1 MOL         0.0000
     34 H3         -5.5329    6.6820    0.2768 H         1 MOL         0.0000
     35 H4         -3.0151    2.8626   -1.6464 H         1 MOL         0.0000
     36 H5         -3.2567    6.1744    1.0982 H         1 MOL         0.0000
     37 H6         -0.3465    3.6400    4.7980 H         1 MOL         0.0000
     38 H7         -0.5177    2.1008    6.7178 H         1 MOL         0.0000
     39 H8          1.3877    0.4066    1.6128 H         1 MOL         0.0000
     40 H9          1.9459    1.1932    0.1241 H         1 MOL         0.0000
     41 H10         0.8627   -0.4706   -1.2529 H         1 MOL         0.0000
     42 H11         1.3393   -1.4685    0.1391 H         1 MOL         0.0000
     43 H12        -1.3597    0.0494    1.7855 H         1 MOL         0.0000
     44 H13        -2.1731    0.5332    0.2810 H         1 MOL         0.0000
     45 H14        -0.3223    1.8610   -0.4477 H         1 MOL         0.0000
     46 H15        -1.5837   -0.2879    8.8730 H         1 MOL         0.0000
     47 H16        -1.3588    1.4477    8.4916 H         1 MOL         0.0000
     48 H17        -0.4458    0.2072    7.5927 H         1 MOL         0.0000
     49 H18        -0.9931    3.7225   -0.5118 H         1 MOL         0.0000
     50 H19        -1.0937    5.0827    0.6152 H         1 MOL         0.0000
     51 H20        -2.9947    4.3798    2.4934 H         1 MOL         0.0000
     52 H21        -1.3043    4.6748    2.9247 H         1 MOL         0.0000
     53 H22        -4.0403   -0.8416    3.4827 H         1 MOL         0.0000
     54 H23        -3.3691   -1.4608    5.0159 H         1 MOL         0.0000
     55 H24         0.4869    3.2605    1.4784 H         1 MOL         0.0000
     56 H25        -0.2760    2.1021    2.6090 H         1 MOL         0.0000
     57 H26        -2.3198    2.5029    1.2260 H         1 MOL         0.0000
@<TRIPOS>BOND
     1    1    2 ar
     2    1    3 ar
     3    2    4 ar
     4    3    5 ar
     5    4    9 ar
     6    5    9 ar
     7    6    7 ar
     8    6   10 ar
     9    7   11 ar
    10    8   10 ar
    11    8   12 ar
    12    8   13 1
    13    9   20 1
    14   10   21 1
    15   11   12 ar
    16   11   30 1
    17   12   31 1
    18   13   25 1
    19   13   27 2
    20   14   22 1
    21   14   26 1
    22   14   28 2
    23   15   16 1
    24   15   18 1
    25   16   29 1
    26   17   18 1
    27   17   29 1
    28   18   23 1
    29   19   30 1
    30   20   24 1
    31   21   24 1
    32   22   31 1
    33   23   24 1
    34    1   32 1
    35    2   33 1
    36    3   34 1
    37    4   35 1
    38    5   36 1
    39    6   37 1
    40    7   38 1
    41   15   39 1
    42   15   40 1
    43   16   41 1
    44   16   42 1
    45   17   43 1
    46   17   44 1
    47   18   45 1
    48   19   46 1
    49   19   47 1
    50   19   48 1
    51   20   49 1
    52   20   50 1
    53   21   51 1
    54   21   52 1
    55   22   53 1
    56   22   54 1
    57   23   55 1
    58   23   56 1
    59   24   57 1
