@<TRIPOS>MOLECULE
AVX17370_0
   41    43     0     0     0
SMALL
NO_CHARGES

@<TRIPOS>ATOM
      1 C1         -7.9054    3.1953    1.9352 C.ar      1 MOL         0.0000
      2 C2         -0.7036    1.3640    1.5041 C.ar      1 MOL         0.0000
      3 C3         -8.4495    2.6419    3.0943 C.ar      1 MOL         0.0000
      4 C4         -7.0810    2.4250    1.1151 C.ar      1 MOL         0.0000
      5 C5         -0.7671    0.1975    0.7446 C.ar      1 MOL         0.0000
      6 C6         -1.6773    1.6439    2.4698 C.ar      1 MOL         0.0000
      7 C7         -8.1691    1.3182    3.4332 C.ar      1 MOL         0.0000
      8 C8         -6.8006    1.1013    1.4540 C.ar      1 MOL         0.0000
      9 C9         -1.8022   -0.7245    0.9247 C.ar      1 MOL         0.0000
     10 C10        -2.7304    0.7292    2.6692 C.ar      1 MOL         0.0000
     11 C11        -3.8586    0.6897    3.5356 C.2       1 MOL         0.0000
     12 C12        -7.3446    0.5479    2.6131 C.ar      1 MOL         0.0000
     13 C13        -2.7685   -0.4315    1.8936 C.ar      1 MOL         0.0000
     14 C14        -4.5471   -0.4724    3.2738 C.2       1 MOL         0.0000
     15 C15        -4.2460    1.6622    4.5194 C.2       1 MOL         0.0000
     16 C16        -3.6718    5.3024    4.5137 C.3       1 MOL         0.0000
     17 C17        -7.0406   -0.8844    2.9793 C.3       1 MOL         0.0000
     18 C18        -5.7802   -1.0271    3.8663 C.3       1 MOL         0.0000
     19 C19        -4.1861    3.9956    5.0787 C.3       1 MOL         0.0000
     20 N1         -3.8818   -1.1421    2.2822 N.pl3     1 MOL         0.0000
     21 O1         -4.8633    1.4095    5.5745 O.2       1 MOL         0.0000
     22 O2         -3.8576    2.9352    4.1746 O.3       1 MOL         0.0000
     23 H1         -8.1250    4.2256    1.6708 H         1 MOL         0.0000
     24 H2          0.1103    2.0666    1.3457 H         1 MOL         0.0000
     25 H3         -9.0923    3.2412    3.7324 H         1 MOL         0.0000
     26 H4         -6.6582    2.8551    0.2120 H         1 MOL         0.0000
     27 H5         -0.0001    0.0000    0.0003 H         1 MOL         0.0000
     28 H6         -1.6138    2.5578    3.0534 H         1 MOL         0.0000
     29 H7         -8.5972    0.8955    4.3383 H         1 MOL         0.0000
     30 H8         -6.1572    0.5087    0.8091 H         1 MOL         0.0000
     31 H9         -1.8512   -1.6324    0.3330 H         1 MOL         0.0000
     32 H10        -2.5856    5.2734    4.3898 H         1 MOL         0.0000
     33 H11        -4.1329    5.5113    3.5427 H         1 MOL         0.0000
     34 H12        -3.9298    6.1366    5.1745 H         1 MOL         0.0000
     35 H13        -7.9154   -1.2994    3.4969 H         1 MOL         0.0000
     36 H14        -6.9239   -1.4852    2.0682 H         1 MOL         0.0000
     37 H15        -5.6430   -2.1065    4.0788 H         1 MOL         0.0000
     38 H16        -5.9891   -0.5806    4.8598 H         1 MOL         0.0000
     39 H17        -5.2729    4.0313    5.2001 H         1 MOL         0.0000
     40 H18        -3.7238    3.7880    6.0483 H         1 MOL         0.0000
     41 H19        -4.1635   -2.0301    1.8899 H         1 MOL         0.0000
@<TRIPOS>BOND
     1    1    3 ar
     2    1    4 ar
     3    2    5 ar
     4    2    6 ar
     5    3    7 ar
     6    4    8 ar
     7    5    9 ar
     8    6   10 ar
     9    7   12 ar
    10    8   12 ar
    11    9   13 ar
    12   10   11 1
    13   10   13 ar
    14   11   14 2
    15   11   15 1
    16   12   17 1
    17   13   20 1
    18   14   18 1
    19   14   20 1
    20   15   21 2
    21   15   22 1
    22   16   19 1
    23   17   18 1
    24   19   22 1
    25    1   23 1
    26    2   24 1
    27    3   25 1
    28    4   26 1
    29    5   27 1
    30    6   28 1
    31    7   29 1
    32    8   30 1
    33    9   31 1
    34   16   32 1
    35   16   33 1
    36   16   34 1
    37   17   35 1
    38   17   36 1
    39   18   37 1
    40   18   38 1
    41   19   39 1
    42   19   40 1
    43   20   41 1
