@<TRIPOS>MOLECULE
AVX101140_0
   37    40     0     0     0
SMALL
NO_CHARGES

@<TRIPOS>ATOM
      1 C1          0.2979   -1.1769    1.7792 C.ar      1 MOL         0.0000
      2 C2         -0.3483    2.9297    1.6278 C.ar      1 MOL         0.0000
      3 C3          0.5196   -2.4525    2.2989 C.ar      1 MOL         0.0000
      4 C4         -0.2544    4.1024    2.3862 C.ar      1 MOL         0.0000
      5 C5          2.1406    4.2723    1.9562 C.ar      1 MOL         0.0000
      6 C6          2.0183    3.1161    1.2153 C.ar      1 MOL         0.0000
      7 C7          0.2866   -2.0843   -0.4619 C.ar      1 MOL         0.0000
      8 C8          0.1764   -0.9939    0.4014 C.ar      1 MOL         0.0000
      9 C9          0.8084    2.4465    1.0443 C.ar      1 MOL         0.0000
     10 C10         0.6167   -3.5455    1.4372 C.ar      1 MOL         0.0000
     11 C11         0.5219   -3.3582    0.0560 C.ar      1 MOL         0.0000
     12 C12         0.9776    4.7667    2.5485 C.ar      1 MOL         0.0000
     13 C13         3.0276    2.3576    0.4813 C.2       1 MOL         0.0000
     14 C14         2.3080    1.1699   -0.1463 C.2       1 MOL         0.0000
     15 C15         0.1665   -1.8848   -1.9208 C.2       1 MOL         0.0000
     16 C16         0.5543   -5.8390    1.0877 C.3       1 MOL         0.0000
     17 C17         1.2151   -5.5522   -0.2464 C.3       1 MOL         0.0000
     18 C18        -0.0697    0.3909   -0.1241 C.3       1 MOL         0.0000
     19 N1          0.9860    1.3031    0.2430 N.am      1 MOL         0.0000
     20 O1         -0.9978   -1.9694   -2.4586 O.co2     1 MOL         0.0000
     21 O2          4.2077    2.5811    0.3614 O.2       1 MOL         0.0000
     22 O3          2.8806    0.3457   -0.8259 O.2       1 MOL         0.0000
     23 O4          1.2309   -1.6347   -2.5963 O.co2     1 MOL         0.0000
     24 O5          0.8145   -4.7756    2.0082 O.3       1 MOL         0.0000
     25 O6          0.6415   -4.3858   -0.8429 O.3       1 MOL         0.0000
     26 Br1         1.0533    6.3488    3.5830 Br        1 MOL         0.0000
     27 H1          0.2167   -0.3317    2.4577 H         1 MOL         0.0000
     28 H2         -1.3035    2.4300    1.5117 H         1 MOL         0.0000
     29 H3          0.6044   -2.5874    3.3737 H         1 MOL         0.0000
     30 H4         -1.1556    4.4954    2.8519 H         1 MOL         0.0000
     31 H5          3.0983    4.7680    2.0686 H         1 MOL         0.0000
     32 H6         -0.5317   -5.9555    0.9845 H         1 MOL         0.0000
     33 H7          0.9573   -6.7597    1.5209 H         1 MOL         0.0000
     34 H8          2.2950   -5.3936   -0.1361 H         1 MOL         0.0000
     35 H9          1.0609   -6.3887   -0.9351 H         1 MOL         0.0000
     36 H10        -0.1426    0.3817   -1.2171 H         1 MOL         0.0000
     37 H11        -1.0113    0.7959    0.2613 H         1 MOL         0.0000
@<TRIPOS>BOND
     1    1    3 ar
     2    1    8 ar
     3    2    4 ar
     4    2    9 ar
     5    3   10 ar
     6    4   12 ar
     7    5    6 ar
     8    5   12 ar
     9    6    9 ar
    10    6   13 1
    11    7    8 ar
    12    7   11 ar
    13    7   15 1
    14    8   18 1
    15    9   19 1
    16   10   11 ar
    17   10   24 1
    18   11   25 1
    19   12   26 1
    20   13   14 1
    21   13   21 2
    22   14   19 am
    23   14   22 2
    24   15   20 1
    25   15   23 2
    26   16   17 1
    27   16   24 1
    28   17   25 1
    29   18   19 1
    30    1   27 1
    31    2   28 1
    32    3   29 1
    33    4   30 1
    34    5   31 1
    35   16   32 1
    36   16   33 1
    37   17   34 1
    38   17   35 1
    39   18   36 1
    40   18   37 1
