@<TRIPOS>MOLECULE
AVX101118_0
   65    68     0     0     0
SMALL
NO_CHARGES

@<TRIPOS>ATOM
      1 C1          3.1197   -8.8960   -5.0342 C.ar      1 MOL         0.0000
      2 C2          1.7779   -8.9809   -5.4057 C.ar      1 MOL         0.0000
      3 C3          3.5404   -7.8896   -4.1648 C.ar      1 MOL         0.0000
      4 C4          0.8568   -8.0593   -4.9078 C.ar      1 MOL         0.0000
      5 C5         -0.5499   -2.8967   -2.0845 C.ar      1 MOL         0.0000
      6 C6          0.0583   -1.6771   -1.7861 C.ar      1 MOL         0.0000
      7 C7          2.6194   -6.9680   -3.6670 C.ar      1 MOL         0.0000
      8 C8          0.3877   -3.8638   -0.0767 C.ar      1 MOL         0.0000
      9 C9          1.2775   -7.0528   -4.0384 C.ar      1 MOL         0.0000
     10 C10        -0.3897   -3.9868   -1.2286 C.ar      1 MOL         0.0000
     11 C11         0.8251   -1.5494   -0.6275 C.ar      1 MOL         0.0000
     12 C12         1.0075   -2.6485    0.2155 C.ar      1 MOL         0.0000
     13 C13         3.0950   -5.9060   -2.7433 C.2       1 MOL         0.0000
     14 C14         0.5624   -5.0230    0.8223 C.2       1 MOL         0.0000
     15 C15         8.2870   -2.7114   -2.8016 C.3       1 MOL         0.0000
     16 C16         7.7389   -3.8381   -3.6719 C.3       1 MOL         0.0000
     17 C17         7.6115   -2.6795   -1.4342 C.3       1 MOL         0.0000
     18 C18         6.2192   -3.7628   -3.7998 C.3       1 MOL         0.0000
     19 C19         6.0915   -2.6025   -1.5582 C.3       1 MOL         0.0000
     20 C20         1.8386   -0.2078    0.9722 C.3       1 MOL         0.0000
     21 C21         2.6233   -1.4439    1.3662 C.3       1 MOL         0.0000
     22 C22         5.5355   -3.7395   -2.4260 C.3       1 MOL         0.0000
     23 C23        -0.6361   -7.7162   -1.8781 C.3       1 MOL         0.0000
     24 C24         0.2702   -6.0789   -3.5208 C.3       1 MOL         0.0000
     25 C25        -1.0638   -5.2816   -1.5752 C.3       1 MOL         0.0000
     26 C26         4.0212   -3.6101   -2.5793 C.3       1 MOL         0.0000
     27 N1          3.5172   -4.7102   -3.3300 N.am      1 MOL         0.0000
     28 N2         -0.1089   -6.3219   -2.1025 N.4       1 MOL         0.0000
     29 O1         -0.2787   -5.1902    1.7796 O.co2     1 MOL         0.0000
     30 O2          3.1156   -6.1266   -1.5353 O.2       1 MOL         0.0000
     31 O3          1.5490   -5.8197    0.6129 O.co2     1 MOL         0.0000
     32 O4          1.3802   -0.3215   -0.3780 O.3       1 MOL         0.0000
     33 O5          1.7752   -2.5954    1.3496 O.3       1 MOL         0.0000
     34 H1          3.8374   -9.6136   -5.4215 H         1 MOL         0.0000
     35 H2          1.4510   -9.7646   -6.0829 H         1 MOL         0.0000
     36 H3          4.5890   -7.8336   -3.8838 H         1 MOL         0.0000
     37 H4         -0.1864   -8.1346   -5.2031 H         1 MOL         0.0000
     38 H5         -1.1513   -2.9860   -2.9856 H         1 MOL         0.0000
     39 H6         -0.0787   -0.8309   -2.4538 H         1 MOL         0.0000
     40 H7          9.3685   -2.8356   -2.6757 H         1 MOL         0.0000
     41 H8          8.1309   -1.7509   -3.3078 H         1 MOL         0.0000
     42 H9          8.1957   -3.7896   -4.6670 H         1 MOL         0.0000
     43 H10         8.0209   -4.8053   -3.2379 H         1 MOL         0.0000
     44 H11         7.8862   -3.5793   -0.8699 H         1 MOL         0.0000
     45 H12         7.9790   -1.8199   -0.8623 H         1 MOL         0.0000
     46 H13         5.9498   -2.8620   -4.3663 H         1 MOL         0.0000
     47 H14         5.8620   -4.6212   -4.3812 H         1 MOL         0.0000
     48 H15         5.6444   -2.6422   -0.5577 H         1 MOL         0.0000
     49 H16         5.8145   -1.6326   -1.9911 H         1 MOL         0.0000
     50 H17         0.9706   -0.0544    1.6253 H         1 MOL         0.0000
     51 H18         2.4742    0.6810    1.0338 H         1 MOL         0.0000
     52 H19         3.4662   -1.6205    0.6866 H         1 MOL         0.0000
     53 H20         3.0188   -1.3361    2.3809 H         1 MOL         0.0000
     54 H21         5.7431   -4.6923   -1.9208 H         1 MOL         0.0000
     55 H22        -1.5457   -7.8286   -2.4710 H         1 MOL         0.0000
     56 H23         0.1329   -8.4203   -2.2015 H         1 MOL         0.0000
     57 H24        -0.8462   -7.8264   -0.8125 H         1 MOL         0.0000
     58 H25         0.6450   -5.0483   -3.5688 H         1 MOL         0.0000
     59 H26        -0.6609   -6.1168   -4.1011 H         1 MOL         0.0000
     60 H27        -1.5539   -5.7197   -0.6991 H         1 MOL         0.0000
     61 H28        -1.8275   -5.1358   -2.3467 H         1 MOL         0.0000
     62 H29         3.8030   -2.6885   -3.1022 H         1 MOL         0.0000
     63 H30         3.5676   -3.6081   -1.5975 H         1 MOL         0.0000
     64 H31         3.5227   -4.6401   -4.3522 H         1 MOL         0.0000
     65 H32         0.7488   -6.2422   -1.5322 H         1 MOL         0.0000
@<TRIPOS>BOND
     1    1    2 ar
     2    1    3 ar
     3    2    4 ar
     4    3    7 ar
     5    4    9 ar
     6    5    6 ar
     7    5   10 ar
     8    6   11 ar
     9    7    9 ar
    10    7   13 1
    11    8   10 ar
    12    8   12 ar
    13    8   14 1
    14    9   24 1
    15   10   25 1
    16   11   12 ar
    17   11   32 1
    18   12   33 1
    19   13   27 am
    20   13   30 2
    21   14   29 1
    22   14   31 2
    23   15   16 1
    24   15   17 1
    25   16   18 1
    26   17   19 1
    27   18   22 1
    28   19   22 1
    29   20   21 1
    30   20   32 1
    31   21   33 1
    32   22   26 1
    33   23   28 1
    34   24   28 1
    35   25   28 1
    36   26   27 1
    37    1   34 1
    38    2   35 1
    39    3   36 1
    40    4   37 1
    41    5   38 1
    42    6   39 1
    43   15   40 1
    44   15   41 1
    45   16   42 1
    46   16   43 1
    47   17   44 1
    48   17   45 1
    49   18   46 1
    50   18   47 1
    51   19   48 1
    52   19   49 1
    53   20   50 1
    54   20   51 1
    55   21   52 1
    56   21   53 1
    57   22   54 1
    58   23   55 1
    59   23   56 1
    60   23   57 1
    61   24   58 1
    62   24   59 1
    63   25   60 1
    64   25   61 1
    65   26   62 1
    66   26   63 1
    67   27   64 1
    68   28   65 1
