@<TRIPOS>MOLECULE
AVX17680_1
   57    58     0     0     0
SMALL
NO_CHARGES

@<TRIPOS>ATOM
      1 C1         -1.8941   -1.5772   -0.8337 C.ar      1 MOL         0.0000
      2 C2         -1.8808   -2.5884   -1.7973 C.ar      1 MOL         0.0000
      3 C3         -1.7661   -3.2224    0.9565 C.ar      1 MOL         0.0000
      4 C4         -1.8370   -1.8923    0.5353 C.ar      1 MOL         0.0000
      5 C5         -1.8103   -3.8934   -1.3551 C.ar      1 MOL         0.0000
      6 C6         -1.7544   -4.2020   -0.0151 C.ar      1 MOL         0.0000
      7 C7         -1.7044   -3.5786    2.3831 C.2       1 MOL         0.0000
      8 C8          0.0450   -1.1043    5.1249 C.2       1 MOL         0.0000
      9 C9         -1.7100   -6.0450   -1.1479 C.3       1 MOL         0.0000
     10 C10         2.1344    1.8340   -0.1843 C.3       1 MOL         0.0000
     11 C11        -1.8541   -0.7635    1.5389 C.3       1 MOL         0.0000
     12 C12        -0.6715   -1.8984    6.2049 C.3       1 MOL         0.0000
     13 C13         1.6349    0.8871    0.8972 C.3       1 MOL         0.0000
     14 C14         0.2596   -2.7622    7.0544 C.3       1 MOL         0.0000
     15 C15        -0.4942   -3.5430    8.1367 C.3       1 MOL         0.0000
     16 C16         0.4688   -4.3787    8.9858 C.3       1 MOL         0.0000
     17 C17         0.1160    0.7067    0.8215 C.3       1 MOL         0.0000
     18 C18        -0.4333    0.4970    3.2759 C.3       1 MOL         0.0000
     19 C19        -0.2249   -5.1702   10.0876 C.3       1 MOL         0.0000
     20 C20        -0.4515   -0.2292    1.9151 C.3       1 MOL         0.0000
     21 N1         -0.8419   -0.3378    4.3827 N.am      1 MOL         0.0000
     22 N2         -1.2076   -6.1184    9.5123 N.4       1 MOL         0.0000
     23 O1         -0.5511   -3.6804    2.9473 O.co2     1 MOL         0.0000
     24 O2         -2.8058   -3.7771    3.0207 O.co2     1 MOL         0.0000
     25 O3          1.2569   -1.1659    4.9369 O.2       1 MOL         0.0000
     26 O4         -1.7864   -5.0031   -2.1424 O.3       1 MOL         0.0000
     27 O5         -1.6887   -5.5435    0.2043 O.3       1 MOL         0.0000
     28 H1         -1.9487   -0.5392   -1.1532 H         1 MOL         0.0000
     29 H2         -1.9246   -2.3497   -2.8539 H         1 MOL         0.0000
     30 H3         -2.5775   -6.7048   -1.2637 H         1 MOL         0.0000
     31 H4         -0.7982   -6.6284   -1.3202 H         1 MOL         0.0000
     32 H5          1.6568    2.8154   -0.0987 H         1 MOL         0.0000
     33 H6          3.2184    1.9712   -0.1151 H         1 MOL         0.0000
     34 H7          1.9054    1.4308   -1.1757 H         1 MOL         0.0000
     35 H8         -2.4817    0.0574    1.1691 H         1 MOL         0.0000
     36 H9         -2.3679   -1.1426    2.4302 H         1 MOL         0.0000
     37 H10        -1.2400   -1.2121    6.8435 H         1 MOL         0.0000
     38 H11        -1.3928   -2.5497    5.6962 H         1 MOL         0.0000
     39 H12         2.1322   -0.0827    0.7820 H         1 MOL         0.0000
     40 H13         1.9261    1.2914    1.8718 H         1 MOL         0.0000
     41 H14         0.7686   -3.4749    6.3939 H         1 MOL         0.0000
     42 H15         1.0383   -2.1428    7.5154 H         1 MOL         0.0000
     43 H16        -1.2316   -4.2030    7.6638 H         1 MOL         0.0000
     44 H17        -1.0469   -2.8465    8.7756 H         1 MOL         0.0000
     45 H18         0.9933   -5.0892    8.3351 H         1 MOL         0.0000
     46 H19         1.2350   -3.7264    9.4228 H         1 MOL         0.0000
     47 H20        -0.1336    0.2916   -0.1636 H         1 MOL         0.0000
     48 H21        -0.3676    1.6899    0.8805 H         1 MOL         0.0000
     49 H22         0.5763    0.8576    3.5015 H         1 MOL         0.0000
     50 H23        -1.0910    1.3719    3.2673 H         1 MOL         0.0000
     51 H24         0.4812   -5.7588   10.6806 H         1 MOL         0.0000
     52 H25        -0.7864   -4.5043   10.7496 H         1 MOL         0.0000
     53 H26         0.2339   -1.0829    2.0058 H         1 MOL         0.0000
     54 H27        -1.8269   -0.3647    4.6294 H         1 MOL         0.0000
     55 H28        -1.0674   -6.2265    8.5015 H         1 MOL         0.0000
     56 H29        -2.1682   -5.7897    9.6633 H         1 MOL         0.0000
     57 H30        -1.1209   -7.0458    9.9432 H         1 MOL         0.0000
@<TRIPOS>BOND
     1    1    2 ar
     2    1    4 ar
     3    2    5 ar
     4    3    4 ar
     5    3    6 ar
     6    3    7 1
     7    4   11 1
     8    5    6 ar
     9    5   26 1
    10    6   27 1
    11    7   23 1
    12    7   24 2
    13    8   12 1
    14    8   21 am
    15    8   25 2
    16    9   26 1
    17    9   27 1
    18   10   13 1
    19   11   20 1
    20   12   14 1
    21   13   17 1
    22   14   15 1
    23   15   16 1
    24   16   19 1
    25   17   20 1
    26   18   20 1
    27   18   21 1
    28   19   22 1
    29    1   28 1
    30    2   29 1
    31    9   30 1
    32    9   31 1
    33   10   32 1
    34   10   33 1
    35   10   34 1
    36   11   35 1
    37   11   36 1
    38   12   37 1
    39   12   38 1
    40   13   39 1
    41   13   40 1
    42   14   41 1
    43   14   42 1
    44   15   43 1
    45   15   44 1
    46   16   45 1
    47   16   46 1
    48   17   47 1
    49   17   48 1
    50   18   49 1
    51   18   50 1
    52   19   51 1
    53   19   52 1
    54   20   53 1
    55   21   54 1
    56   22   55 1
    57   22   56 1
    58   22   57 1
