@<TRIPOS>MOLECULE
AVX17476_0
   34    36     0     0     0
SMALL
NO_CHARGES

@<TRIPOS>ATOM
      1 C1         -6.2493   -0.0154   -1.5891 C.ar      1 MOL         0.0000
      2 C2         -6.0943   -1.4015   -1.5674 C.ar      1 MOL         0.0000
      3 C3         -5.1281    0.8127   -1.5345 C.ar      1 MOL         0.0000
      4 C4         -0.7036    1.3640    1.5041 C.ar      1 MOL         0.0000
      5 C5         -1.6773    1.6439    2.4698 C.ar      1 MOL         0.0000
      6 C6         -4.8182   -1.9594   -1.4910 C.ar      1 MOL         0.0000
      7 C7         -3.8520    0.2547   -1.4582 C.ar      1 MOL         0.0000
      8 C8         -0.7671    0.1975    0.7446 C.ar      1 MOL         0.0000
      9 C9         -4.5471   -0.4724    3.2738 C.2       1 MOL         0.0000
     10 C10        -2.7304    0.7292    2.6692 C.ar      1 MOL         0.0000
     11 C11        -3.8586    0.6897    3.5356 C.2       1 MOL         0.0000
     12 C12        -3.6970   -1.1313   -1.4364 C.ar      1 MOL         0.0000
     13 C13        -1.8022   -0.7245    0.9247 C.ar      1 MOL         0.0000
     14 C14        -2.7685   -0.4315    1.8936 C.ar      1 MOL         0.0000
     15 C15        -4.2442    1.7373    4.5702 C.2       1 MOL         0.0000
     16 C16        -2.3159   -1.7344   -1.3536 C.3       1 MOL         0.0000
     17 C17        -1.8391   -1.9637    0.0939 C.3       1 MOL         0.0000
     18 N1         -3.8818   -1.1421    2.2822 N.pl3     1 MOL         0.0000
     19 O1         -5.2909    1.5143    5.2438 O.co2     1 MOL         0.0000
     20 O2         -3.4864    2.7446    4.6707 O.co2     1 MOL         0.0000
     21 H1         -7.2429    0.4188   -1.6499 H         1 MOL         0.0000
     22 H2         -6.9671   -2.0464   -1.6110 H         1 MOL         0.0000
     23 H3         -5.2484    1.8918   -1.5525 H         1 MOL         0.0000
     24 H4          0.1113    2.0657    1.3463 H         1 MOL         0.0000
     25 H5         -1.6124    2.5578    3.0533 H         1 MOL         0.0000
     26 H6         -4.7070   -3.0404   -1.4744 H         1 MOL         0.0000
     27 H7         -2.9843    0.9077   -1.4159 H         1 MOL         0.0000
     28 H8          0.0045    0.0087    0.0014 H         1 MOL         0.0000
     29 H9         -5.4496   -0.8845    3.7035 H         1 MOL         0.0000
     30 H10        -2.3258   -2.6904   -1.8933 H         1 MOL         0.0000
     31 H11        -1.5994   -1.0995   -1.8904 H         1 MOL         0.0000
     32 H12        -0.8280   -2.4038    0.0585 H         1 MOL         0.0000
     33 H13        -2.4664   -2.7348    0.5727 H         1 MOL         0.0000
     34 H14        -4.1666   -2.0304    1.8935 H         1 MOL         0.0000
@<TRIPOS>BOND
     1    1    2 ar
     2    1    3 ar
     3    2    6 ar
     4    3    7 ar
     5    4    5 ar
     6    4    8 ar
     7    5   10 ar
     8    6   12 ar
     9    7   12 ar
    10    8   13 ar
    11    9   11 2
    12    9   18 1
    13   10   11 1
    14   10   14 ar
    15   11   15 1
    16   12   16 1
    17   13   14 ar
    18   13   17 1
    19   14   18 1
    20   15   19 1
    21   15   20 2
    22   16   17 1
    23    1   21 1
    24    2   22 1
    25    3   23 1
    26    4   24 1
    27    5   25 1
    28    6   26 1
    29    7   27 1
    30    8   28 1
    31    9   29 1
    32   16   30 1
    33   16   31 1
    34   17   32 1
    35   17   33 1
    36   18   34 1
