AVX17266_0
  -OEChem-04011314523D

 30 32  0     0  0  0  0  0  0999 V2000
   -0.2776    1.4993   -1.5215 C   0  0  0  0  0  0  0  0  0  0  0  0
   -0.6352    0.3530   -0.8075 C   0  0  0  0  0  0  0  0  0  0  0  0
   -1.0850    1.9654   -2.5620 C   0  0  0  0  0  0  0  0  0  0  0  0
   -1.8037   -0.3394   -1.1257 C   0  0  0  0  0  0  0  0  0  0  0  0
   -5.6540   -0.9451   -3.6259 C   0  0  0  0  0  0  0  0  0  0  0  0
   -2.2576    1.2801   -2.8901 C   0  0  0  0  0  0  0  0  0  0  0  0
   -2.6058    0.1309   -2.1660 C   0  0  0  0  0  0  0  0  0  0  0  0
   -5.3973   -1.8854   -2.6092 C   0  0  0  0  0  0  0  0  0  0  0  0
   -4.5952   -0.0764   -3.5493 C   0  0  0  0  0  0  0  0  0  0  0  0
   -3.1262    1.7710   -3.9997 C   0  0  0  0  0  0  0  0  0  0  0  0
   -6.2169   -3.0532   -2.2434 C   0  0  0  0  0  0  0  0  0  0  0  0
   -7.2878   -2.7806   -1.1749 C   0  0  0  0  0  0  0  0  0  0  0  0
   -4.2673   -1.6348   -1.9399 N   0  0  0  0  0  0  0  0  0  0  0  0
   -3.7911   -0.5194   -2.5332 N   0  0  0  0  0  0  0  0  0  0  0  0
   -4.2780    1.0456   -4.2744 N   0  0  0  0  0  0  0  0  0  0  0  0
   -6.6442   -2.3584    0.0936 N   0  3  0  0  0  0  0  0  0  0  0  0
   -2.8106    2.7789   -4.6274 O   0  0  0  0  0  0  0  0  0  0  0  0
    0.6340    2.0319   -1.2654 H   0  0  0  0  0  0  0  0  0  0  0  0
   -0.0008    0.0007    0.0009 H   0  0  0  0  0  0  0  0  0  0  0  0
   -0.7833    2.8596   -3.0999 H   0  0  0  0  0  0  0  0  0  0  0  0
   -2.0607   -1.2272   -0.5558 H   0  0  0  0  0  0  0  0  0  0  0  0
   -6.4859   -0.9059   -4.3144 H   0  0  0  0  0  0  0  0  0  0  0  0
   -6.7423   -3.4408   -3.1381 H   0  0  0  0  0  0  0  0  0  0  0  0
   -5.5916   -3.9027   -1.9045 H   0  0  0  0  0  0  0  0  0  0  0  0
   -7.8658   -3.6798   -0.9419 H   0  0  0  0  0  0  0  0  0  0  0  0
   -7.9701   -1.9773   -1.4686 H   0  0  0  0  0  0  0  0  0  0  0  0
   -4.8942    1.3491   -5.0219 H   0  0  0  0  0  0  0  0  0  0  0  0
   -7.3286   -1.9344    0.7287 H   0  0  0  0  0  0  0  0  0  0  0  0
   -5.9062   -1.6681   -0.0824 H   0  0  0  0  0  0  0  0  0  0  0  0
   -6.2203   -3.1592    0.5740 H   0  0  0  0  0  0  0  0  0  0  0  0
  1  2  1  0  0  0  0
  1  3  2  0  0  0  0
  2  4  2  0  0  0  0
  3  6  1  0  0  0  0
  4  7  1  0  0  0  0
  5  8  1  0  0  0  0
  5  9  2  0  0  0  0
  6  7  2  0  0  0  0
  6 10  1  0  0  0  0
  7 14  1  0  0  0  0
  8 11  1  0  0  0  0
  8 13  2  0  0  0  0
  9 14  1  0  0  0  0
  9 15  1  0  0  0  0
 10 15  1  0  0  0  0
 10 17  2  0  0  0  0
 11 12  1  0  0  0  0
 12 16  1  0  0  0  0
 13 14  1  0  0  0  0
  1 18  1  0  0  0  0
  2 19  1  0  0  0  0
  3 20  1  0  0  0  0
  4 21  1  0  0  0  0
  5 22  1  0  0  0  0
 11 23  1  0  0  0  0
 11 24  1  0  0  0  0
 12 25  1  0  0  0  0
 12 26  1  0  0  0  0
 15 27  1  0  0  0  0
 16 28  1  0  0  0  0
 16 29  1  0  0  0  0
 16 30  1  0  0  0  0
M  CHG  1  16   1
M  END
$$$$
