@<TRIPOS>MOLECULE
AVX101118_1
   65    68     0     0     0
SMALL
NO_CHARGES

@<TRIPOS>ATOM
      1 C1          8.4347   -4.1838    0.7961 C.ar      1 MOL         0.0000
      2 C2          8.0021   -3.9065    2.0928 C.ar      1 MOL         0.0000
      3 C3          7.6173   -3.8786   -0.2922 C.ar      1 MOL         0.0000
      4 C4          6.7520   -3.3240    2.3013 C.ar      1 MOL         0.0000
      5 C5          6.8207    1.2889    0.8894 C.ar      1 MOL         0.0000
      6 C6          7.2648    2.5170    0.3983 C.ar      1 MOL         0.0000
      7 C7          6.3671   -3.2961   -0.0836 C.ar      1 MOL         0.0000
      8 C8          4.9965    2.3954    2.0269 C.ar      1 MOL         0.0000
      9 C9          5.9344   -3.0188    1.2131 C.ar      1 MOL         0.0000
     10 C10         5.6854    1.2276    1.6981 C.ar      1 MOL         0.0000
     11 C11         6.5688    3.6838    0.7159 C.ar      1 MOL         0.0000
     12 C12         5.4478    3.6255    1.5476 C.ar      1 MOL         0.0000
     13 C13         5.5167   -2.9822   -1.2607 C.2       1 MOL         0.0000
     14 C14         3.8003    2.3272    2.8910 C.2       1 MOL         0.0000
     15 C15         3.8362    2.4160   -3.5415 C.3       1 MOL         0.0000
     16 C16         4.6603    2.0014   -2.3265 C.3       1 MOL         0.0000
     17 C17         2.9240    1.2875   -4.0122 C.3       1 MOL         0.0000
     18 C18         5.4463    0.7190   -2.5899 C.3       1 MOL         0.0000
     19 C19         3.7070    0.0038   -4.2783 C.3       1 MOL         0.0000
     20 C20         6.0798    5.9110    0.2839 C.3       1 MOL         0.0000
     21 C21         5.4730    5.9426    1.6730 C.3       1 MOL         0.0000
     22 C22         4.5306   -0.4213   -3.0552 C.3       1 MOL         0.0000
     23 C23         3.1610   -0.4550    0.8575 C.3       1 MOL         0.0000
     24 C24         4.6003   -2.3960    1.4652 C.3       1 MOL         0.0000
     25 C25         5.2305   -0.1100    2.2029 C.3       1 MOL         0.0000
     26 C26         5.3456   -1.6760   -3.3632 C.3       1 MOL         0.0000
     27 N1          6.0490   -2.0920   -2.1970 N.am      1 MOL         0.0000
     28 N2          4.5581   -0.9440    1.1424 N.4       1 MOL         0.0000
     29 O1          2.6507    2.1716    2.3376 O.co2     1 MOL         0.0000
     30 O2          4.4017   -3.4899   -1.3478 O.2       1 MOL         0.0000
     31 O3          3.9547    2.4265    4.1631 O.co2     1 MOL         0.0000
     32 O4          7.0415    4.8566    0.1873 O.3       1 MOL         0.0000
     33 O5          4.7418    4.7389    1.9219 O.3       1 MOL         0.0000
     34 H1          9.4083   -4.6373    0.6331 H         1 MOL         0.0000
     35 H2          8.6390   -4.1446    2.9398 H         1 MOL         0.0000
     36 H3          7.9654   -4.1006   -1.2977 H         1 MOL         0.0000
     37 H4          6.4246   -3.1116    3.3157 H         1 MOL         0.0000
     38 H5          7.3646    0.3838    0.6318 H         1 MOL         0.0000
     39 H6          8.1449    2.5547   -0.2378 H         1 MOL         0.0000
     40 H7          3.2344    3.2981   -3.2952 H         1 MOL         0.0000
     41 H8          4.5099    2.7046   -4.3576 H         1 MOL         0.0000
     42 H9          5.3510    2.8087   -2.0576 H         1 MOL         0.0000
     43 H10         3.9948    1.8512   -1.4675 H         1 MOL         0.0000
     44 H11         2.1574    1.0959   -3.2513 H         1 MOL         0.0000
     45 H12         2.3989    1.5950   -4.9237 H         1 MOL         0.0000
     46 H13         6.2128    0.9164   -3.3504 H         1 MOL         0.0000
     47 H14         5.9756    0.4248   -1.6756 H         1 MOL         0.0000
     48 H15         3.0087   -0.7950   -4.5555 H         1 MOL         0.0000
     49 H16         4.3699    0.1585   -5.1394 H         1 MOL         0.0000
     50 H17         5.3153    5.7600   -0.4882 H         1 MOL         0.0000
     51 H18         6.5966    6.8526    0.0739 H         1 MOL         0.0000
     52 H19         6.2426    6.0509    2.4473 H         1 MOL         0.0000
     53 H20         4.7755    6.7810    1.7645 H         1 MOL         0.0000
     54 H21         3.8367   -0.6619   -2.2387 H         1 MOL         0.0000
     55 H22         2.5669   -0.5959    1.7624 H         1 MOL         0.0000
     56 H23         3.2247    0.6015    0.5902 H         1 MOL         0.0000
     57 H24         2.7624   -1.0458    0.0305 H         1 MOL         0.0000
     58 H25         3.8146   -2.8701    0.8628 H         1 MOL         0.0000
     59 H26         4.3064   -2.4878    2.5189 H         1 MOL         0.0000
     60 H27         6.0740   -0.6992    2.5785 H         1 MOL         0.0000
     61 H28         4.5099    0.0000    3.0205 H         1 MOL         0.0000
     62 H29         6.0546   -1.4452   -4.1470 H         1 MOL         0.0000
     63 H30         4.6736   -2.4633   -3.6766 H         1 MOL         0.0000
     64 H31         6.9633   -1.6698   -2.0083 H         1 MOL         0.0000
     65 H32         5.0975   -0.7998    0.2732 H         1 MOL         0.0000
@<TRIPOS>BOND
     1    1    2 ar
     2    1    3 ar
     3    2    4 ar
     4    3    7 ar
     5    4    9 ar
     6    5    6 ar
     7    5   10 ar
     8    6   11 ar
     9    7    9 ar
    10    7   13 1
    11    8   10 ar
    12    8   12 ar
    13    8   14 1
    14    9   24 1
    15   10   25 1
    16   11   12 ar
    17   11   32 1
    18   12   33 1
    19   13   27 am
    20   13   30 2
    21   14   29 1
    22   14   31 2
    23   15   16 1
    24   15   17 1
    25   16   18 1
    26   17   19 1
    27   18   22 1
    28   19   22 1
    29   20   21 1
    30   20   32 1
    31   21   33 1
    32   22   26 1
    33   23   28 1
    34   24   28 1
    35   25   28 1
    36   26   27 1
    37    1   34 1
    38    2   35 1
    39    3   36 1
    40    4   37 1
    41    5   38 1
    42    6   39 1
    43   15   40 1
    44   15   41 1
    45   16   42 1
    46   16   43 1
    47   17   44 1
    48   17   45 1
    49   18   46 1
    50   18   47 1
    51   19   48 1
    52   19   49 1
    53   20   50 1
    54   20   51 1
    55   21   52 1
    56   21   53 1
    57   22   54 1
    58   23   55 1
    59   23   56 1
    60   23   57 1
    61   24   58 1
    62   24   59 1
    63   25   60 1
    64   25   61 1
    65   26   62 1
    66   26   63 1
    67   27   64 1
    68   28   65 1
