@<TRIPOS>MOLECULE
AVX101121_1
   67    70     0     0     0
SMALL
NO_CHARGES

@<TRIPOS>ATOM
      1 C1          3.2867    1.5348    2.8516 C.ar      1 MOL         0.0000
      2 C2          4.0874    0.8427    3.7553 C.ar      1 MOL         0.0000
      3 C3          9.1199   -4.2563   -4.2474 C.ar      1 MOL         0.0000
      4 C4          3.3349    1.2212    1.4930 C.ar      1 MOL         0.0000
      5 C5          4.9393   -0.1658    3.3039 C.ar      1 MOL         0.0000
      6 C6          8.7289   -4.4852   -2.9282 C.ar      1 MOL         0.0000
      7 C7          4.3335   -0.4889   -6.0610 C.ar      1 MOL         0.0000
      8 C8          5.4331    1.4051   -5.0408 C.ar      1 MOL         0.0000
      9 C9          8.2349   -4.5198   -5.2929 C.ar      1 MOL         0.0000
     10 C10         3.5050    0.3767   -6.7750 C.ar      1 MOL         0.0000
     11 C11         4.6046    2.2707   -5.7548 C.ar      1 MOL         0.0000
     12 C12         4.2477   -0.1198   -0.3430 C.ar      1 MOL         0.0000
     13 C13         5.8523   -1.5068    1.4679 C.ar      1 MOL         0.0000
     14 C14         4.1864    0.2091    1.0210 C.ar      1 MOL         0.0000
     15 C15         5.0007   -0.4947    1.9400 C.ar      1 MOL         0.0000
     16 C16         5.0997   -1.1282   -0.7944 C.ar      1 MOL         0.0000
     17 C17         6.5679   -5.2414   -3.6999 C.ar      1 MOL         0.0000
     18 C18         5.2976    0.0253   -5.1938 C.ar      1 MOL         0.0000
     19 C19         7.4530   -4.9778   -2.6544 C.ar      1 MOL         0.0000
     20 C20         5.9004   -1.8203    0.1093 C.ar      1 MOL         0.0000
     21 C21         3.6405    1.7565   -6.6219 C.ar      1 MOL         0.0000
     22 C22         6.9589   -5.0125   -5.0191 C.ar      1 MOL         0.0000
     23 C23         5.1318   -1.4362   -2.2180 C.2       1 MOL         0.0000
     24 C24         5.2175   -5.7662   -3.4156 C.2       1 MOL         0.0000
     25 C25         5.2926   -4.7019    0.4537 C.3       1 MOL         0.0000
     26 C26         3.0251    4.0000   -7.1158 C.3       1 MOL         0.0000
     27 C27         6.5973   -5.0007   -7.3696 C.3       1 MOL         0.0000
     28 C28         6.1899   -0.9063   -4.4256 C.3       1 MOL         0.0000
     29 C29         7.0606   -5.2154   -1.2259 C.3       1 MOL         0.0000
     30 C30         6.8212   -2.9046   -0.3482 C.3       1 MOL         0.0000
     31 N1          6.0539   -0.7306   -2.9976 N.am      1 MOL         0.0000
     32 N2          6.1161   -4.1692   -0.6910 N.4       1 MOL         0.0000
     33 O1          5.0503   -7.0400   -3.3662 O.co2     1 MOL         0.0000
     34 O2          4.3515   -2.2760   -2.6974 O.2       1 MOL         0.0000
     35 O3          4.2593   -4.9297   -3.2283 O.co2     1 MOL         0.0000
     36 O4          2.8328    2.6010   -7.3197 O.3       1 MOL         0.0000
     37 O5          6.1107   -5.2652   -6.0556 O.3       1 MOL         0.0000
     38 H1          2.6232    2.3194    3.2034 H         1 MOL         0.0000
     39 H2          4.0487    1.0866    4.8129 H         1 MOL         0.0000
     40 H3         10.1129   -3.8717   -4.4603 H         1 MOL         0.0000
     41 H4          2.6999    1.7754    0.8047 H         1 MOL         0.0000
     42 H5          5.5561   -0.6934    4.0284 H         1 MOL         0.0000
     43 H6          9.4253   -4.2769   -2.1203 H         1 MOL         0.0000
     44 H7          4.2209   -1.5624   -6.1863 H         1 MOL         0.0000
     45 H8          6.1815    1.8147   -4.3672 H         1 MOL         0.0000
     46 H9          8.5468   -4.3394   -6.3183 H         1 MOL         0.0000
     47 H10         2.7560   -0.0299   -7.4493 H         1 MOL         0.0000
     48 H11         4.7153    3.3444   -5.6315 H         1 MOL         0.0000
     49 H12         3.6248    0.4157   -1.0580 H         1 MOL         0.0000
     50 H13         6.4834   -2.0555    2.1652 H         1 MOL         0.0000
     51 H14         5.9727   -4.9311    1.2761 H         1 MOL         0.0000
     52 H15         4.5777   -3.9279    0.7396 H         1 MOL         0.0000
     53 H16         4.7798   -5.6009    0.1064 H         1 MOL         0.0000
     54 H17         2.3170    4.5596   -7.7318 H         1 MOL         0.0000
     55 H18         4.0498    4.2706   -7.3827 H         1 MOL         0.0000
     56 H19         2.8515    4.2328   -6.0625 H         1 MOL         0.0000
     57 H20         5.8234   -5.2446   -8.1015 H         1 MOL         0.0000
     58 H21         7.4918   -5.6006   -7.5555 H         1 MOL         0.0000
     59 H22         6.8492   -3.9405   -7.4487 H         1 MOL         0.0000
     60 H23         5.9531   -1.9496   -4.6612 H         1 MOL         0.0000
     61 H24         7.2418   -0.7452   -4.6841 H         1 MOL         0.0000
     62 H25         6.5585   -6.1817   -1.1087 H         1 MOL         0.0000
     63 H26         7.9373   -5.2130   -0.5693 H         1 MOL         0.0000
     64 H27         7.3780   -2.6070   -1.2459 H         1 MOL         0.0000
     65 H28         7.5568   -3.1597    0.4254 H         1 MOL         0.0000
     66 H29         6.6234   -0.0107   -2.5648 H         1 MOL         0.0000
     67 H30         5.4505   -3.9610   -1.4532 H         1 MOL         0.0000
@<TRIPOS>BOND
     1    1    2 ar
     2    1    4 ar
     3    2    5 ar
     4    3    6 ar
     5    3    9 ar
     6    4   14 ar
     7    5   15 ar
     8    6   19 ar
     9    7   10 ar
    10    7   18 ar
    11    8   11 ar
    12    8   18 ar
    13    9   22 ar
    14   10   21 ar
    15   11   21 ar
    16   12   14 ar
    17   12   16 ar
    18   13   15 ar
    19   13   20 ar
    20   14   15 ar
    21   16   20 ar
    22   16   23 1
    23   17   19 ar
    24   17   22 ar
    25   17   24 1
    26   18   28 1
    27   19   29 1
    28   20   30 1
    29   21   36 1
    30   22   37 1
    31   23   31 am
    32   23   34 2
    33   24   33 1
    34   24   35 2
    35   25   32 1
    36   26   36 1
    37   27   37 1
    38   28   31 1
    39   29   32 1
    40   30   32 1
    41    1   38 1
    42    2   39 1
    43    3   40 1
    44    4   41 1
    45    5   42 1
    46    6   43 1
    47    7   44 1
    48    8   45 1
    49    9   46 1
    50   10   47 1
    51   11   48 1
    52   12   49 1
    53   13   50 1
    54   25   51 1
    55   25   52 1
    56   25   53 1
    57   26   54 1
    58   26   55 1
    59   26   56 1
    60   27   57 1
    61   27   58 1
    62   27   59 1
    63   28   60 1
    64   28   61 1
    65   29   62 1
    66   29   63 1
    67   30   64 1
    68   30   65 1
    69   31   66 1
    70   32   67 1
