AVX17387_0
  -OEChem-04011314533D

 32 34  0     0  0  0  0  0  0999 V2000
   -1.1410   -6.2875   -2.5496 C   0  0  0  0  0  0  0  0  0  0  0  0
   -2.2393   -5.4318   -2.4658 C   0  0  0  0  0  0  0  0  0  0  0  0
    0.0516   -5.9567   -1.9062 C   0  0  0  0  0  0  0  0  0  0  0  0
   -0.7036    1.3640    1.5041 C   0  0  0  0  0  0  0  0  0  0  0  0
   -1.6773    1.6439    2.4698 C   0  0  0  0  0  0  0  0  0  0  0  0
   -2.1450   -4.2452   -1.7387 C   0  0  0  0  0  0  0  0  0  0  0  0
    0.1459   -4.7701   -1.1791 C   0  0  0  0  0  0  0  0  0  0  0  0
   -0.7671    0.1975    0.7446 C   0  0  0  0  0  0  0  0  0  0  0  0
   -4.5471   -0.4724    3.2738 C   0  0  0  0  0  0  0  0  0  0  0  0
   -2.7304    0.7292    2.6692 C   0  0  0  0  0  0  0  0  0  0  0  0
   -0.9524   -3.9143   -1.0953 C   0  0  0  0  0  0  0  0  0  0  0  0
   -1.8022   -0.7245    0.9247 C   0  0  0  0  0  0  0  0  0  0  0  0
   -3.8586    0.6897    3.5356 C   0  0  0  0  0  0  0  0  0  0  0  0
   -2.7685   -0.4315    1.8936 C   0  0  0  0  0  0  0  0  0  0  0  0
   -0.8521   -2.6608   -0.3271 C   0  0  0  0  0  0  0  0  0  0  0  0
   -1.9019   -1.9470    0.1529 C   0  0  0  0  0  0  0  0  0  0  0  0
   -4.2445    1.7371    4.5703 C   0  0  0  0  0  0  0  0  0  0  0  0
   -3.8818   -1.1421    2.2822 N   0  0  0  0  0  0  0  0  0  0  0  0
   -5.2912    1.5139    5.2437 O   0  5  0  0  0  0  0  0  0  0  0  0
   -3.4868    2.7445    4.6711 O   0  0  0  0  0  0  0  0  0  0  0  0
   -1.2148   -7.2120   -3.1147 H   0  0  0  0  0  0  0  0  0  0  0  0
   -3.1685   -5.6897   -2.9657 H   0  0  0  0  0  0  0  0  0  0  0  0
    0.9065   -6.6234   -1.9705 H   0  0  0  0  0  0  0  0  0  0  0  0
    0.1113    2.0656    1.3466 H   0  0  0  0  0  0  0  0  0  0  0  0
   -1.6138    2.5578    3.0535 H   0  0  0  0  0  0  0  0  0  0  0  0
   -3.0098   -3.5882   -1.6825 H   0  0  0  0  0  0  0  0  0  0  0  0
    1.0824   -4.5261   -0.6832 H   0  0  0  0  0  0  0  0  0  0  0  0
    0.0068    0.0116    0.0025 H   0  0  0  0  0  0  0  0  0  0  0  0
   -5.4496   -0.8843    3.7033 H   0  0  0  0  0  0  0  0  0  0  0  0
    0.1620   -2.3269   -0.1210 H   0  0  0  0  0  0  0  0  0  0  0  0
   -2.9164   -2.3279   -0.0230 H   0  0  0  0  0  0  0  0  0  0  0  0
   -4.1691   -2.0296    1.8934 H   0  0  0  0  0  0  0  0  0  0  0  0
  1  2  2  0  0  0  0
  1  3  1  0  0  0  0
  2  6  1  0  0  0  0
  3  7  2  0  0  0  0
  4  5  1  0  0  0  0
  4  8  2  0  0  0  0
  5 10  2  0  0  0  0
  6 11  2  0  0  0  0
  7 11  1  0  0  0  0
  8 12  1  0  0  0  0
  9 13  2  0  0  0  0
  9 18  1  0  0  0  0
 10 13  1  0  0  0  0
 10 14  1  0  0  0  0
 11 15  1  0  0  0  0
 12 14  2  0  0  0  0
 12 16  1  0  0  0  0
 13 17  1  0  0  0  0
 14 18  1  0  0  0  0
 15 16  2  0  0  0  0
 17 19  1  0  0  0  0
 17 20  2  0  0  0  0
  1 21  1  0  0  0  0
  2 22  1  0  0  0  0
  3 23  1  0  0  0  0
  4 24  1  0  0  0  0
  5 25  1  0  0  0  0
  6 26  1  0  0  0  0
  7 27  1  0  0  0  0
  8 28  1  0  0  0  0
  9 29  1  0  0  0  0
 15 30  1  0  0  0  0
 16 31  1  0  0  0  0
 18 32  1  0  0  0  0
M  CHG  1  19  -1
M  END
$$$$
