@<TRIPOS>MOLECULE
AVX17261_0
   26    27     0     0     0
SMALL
NO_CHARGES

@<TRIPOS>ATOM
      1 C1          0.5325   -0.4340    3.2886 C.ar      1 MOL         0.0000
      2 C2         -0.8431   -0.2988    3.1607 C.ar      1 MOL         0.0000
      3 C3          1.3404   -0.4145    2.1511 C.ar      1 MOL         0.0000
      4 C4         -1.4067   -0.1491    1.8959 C.ar      1 MOL         0.0000
      5 C5          0.7961   -0.2497    0.8614 C.ar      1 MOL         0.0000
      6 C6         -0.6006   -0.1339    0.7438 C.ar      1 MOL         0.0000
      7 C7          0.3952    0.6531   -2.1666 C.2       1 MOL         0.0000
      8 C8          1.7595   -0.2948   -0.2949 C.3       1 MOL         0.0000
      9 C9         -0.6640   -0.3693   -1.7915 C.3       1 MOL         0.0000
     10 C10        -1.7420   -0.4650   -2.8698 C.3       1 MOL         0.0000
     11 N1          1.4938    0.6757   -1.3357 N.am      1 MOL         0.0000
     12 N2         -1.3353    0.0576   -0.5239 N.4       1 MOL         0.0000
     13 O1          0.2742    1.4227   -3.1190 O.2       1 MOL         0.0000
     14 H1          0.9796   -0.5575    4.2705 H         1 MOL         0.0000
     15 H2         -1.4775   -0.3112    4.0418 H         1 MOL         0.0000
     16 H3          2.4147   -0.5321    2.2798 H         1 MOL         0.0000
     17 H4         -2.4864   -0.0421    1.8148 H         1 MOL         0.0000
     18 H5          2.7794   -0.0845    0.0476 H         1 MOL         0.0000
     19 H6          1.7668   -1.2987   -0.7333 H         1 MOL         0.0000
     20 H7         -0.2409   -1.3677   -1.6423 H         1 MOL         0.0000
     21 H8         -2.1816    0.5163   -3.0397 H         1 MOL         0.0000
     22 H9         -2.5214   -1.1551   -2.5516 H         1 MOL         0.0000
     23 H10        -1.3033   -0.8254   -3.7987 H         1 MOL         0.0000
     24 H11         2.1653    1.4269   -1.4624 H         1 MOL         0.0000
     25 H12        -2.2196   -0.4633   -0.4298 H         1 MOL         0.0000
     26 H13        -1.5980    1.0526   -0.5769 H         1 MOL         0.0000
@<TRIPOS>BOND
     1    1    2 ar
     2    1    3 ar
     3    2    4 ar
     4    3    5 ar
     5    4    6 ar
     6    5    6 ar
     7    5    8 1
     8    6   12 1
     9    7    9 1
    10    7   11 am
    11    7   13 2
    12    8   11 1
    13    9   10 1
    14    9   12 1
    15    1   14 1
    16    2   15 1
    17    3   16 1
    18    4   17 1
    19    8   18 1
    20    8   19 1
    21    9   20 1
    22   10   21 1
    23   10   22 1
    24   10   23 1
    25   11   24 1
    26   12   25 1
    27   12   26 1
