@<TRIPOS>MOLECULE
AVX17629_0
   63    66     0     0     0
SMALL
NO_CHARGES

@<TRIPOS>ATOM
      1 C1         -8.8072   -7.4924   -0.4682 C.ar      1 MOL         0.0000
      2 C2         -2.3313   -7.1384    1.5392 C.ar      1 MOL         0.0000
      3 C3         -8.1205   -6.9282   -1.5432 C.ar      1 MOL         0.0000
      4 C4         -9.0653   -6.7308    0.6716 C.ar      1 MOL         0.0000
      5 C5         -3.2377   -6.4533    2.3483 C.ar      1 MOL         0.0000
      6 C6         -1.8832   -6.5619    0.3507 C.ar      1 MOL         0.0000
      7 C7         -7.6918   -5.6025   -1.4785 C.ar      1 MOL         0.0000
      8 C8         -8.6365   -5.4050    0.7363 C.ar      1 MOL         0.0000
      9 C9         -3.6960   -5.1917    1.9690 C.ar      1 MOL         0.0000
     10 C10        -2.3415   -5.3003   -0.0287 C.ar      1 MOL         0.0000
     11 C11         1.3294    0.8538   -2.2632 C.ar      1 MOL         0.0000
     12 C12         2.3579    0.8702   -3.2084 C.ar      1 MOL         0.0000
     13 C13         2.1176   -1.2736   -1.3794 C.ar      1 MOL         0.0000
     14 C14        -7.9498   -4.8409   -0.3387 C.ar      1 MOL         0.0000
     15 C15        -3.2479   -4.6152    0.7804 C.ar      1 MOL         0.0000
     16 C16         1.2100   -0.2119   -1.3539 C.ar      1 MOL         0.0000
     17 C17         3.2408   -0.1901   -3.2125 C.ar      1 MOL         0.0000
     18 C18         3.1239   -1.2332   -2.3224 C.ar      1 MOL         0.0000
     19 C19         2.0170   -2.3893   -0.4500 C.2       1 MOL         0.0000
     20 C20        -5.0057   -3.3374   -0.4819 C.2       1 MOL         0.0000
     21 C21        -1.8142   -1.6803    0.2309 C.2       1 MOL         0.0000
     22 C22         4.8342   -1.6030   -3.5952 C.3       1 MOL         0.0000
     23 C23         1.5530   -5.9552   -1.1999 C.3       1 MOL         0.0000
     24 C24        -7.4883   -3.4139   -0.2683 C.3       1 MOL         0.0000
     25 C25         0.0921   -0.1831   -0.3619 C.3       1 MOL         0.0000
     26 C26         1.7335   -4.7524   -0.2987 C.3       1 MOL         0.0000
     27 C27        -3.7442   -3.2487    0.3688 C.3       1 MOL         0.0000
     28 N1         -6.1595   -3.3020    0.2887 N.am      1 MOL         0.0000
     29 N2         -0.9681   -1.0927   -0.7099 N.am      1 MOL         0.0000
     30 N3         -2.7482   -2.5157   -0.3767 N.am      1 MOL         0.0000
     31 O1          2.0759   -2.2808    0.7813 O.2       1 MOL         0.0000
     32 O2         -4.9776   -3.4654   -1.7043 O.2       1 MOL         0.0000
     33 O3         -1.7444   -1.4847    1.4435 O.2       1 MOL         0.0000
     34 O4          4.2986   -0.3451   -4.0544 O.3       1 MOL         0.0000
     35 O5          4.0938   -2.1719   -2.4958 O.3       1 MOL         0.0000
     36 O6          1.8474   -3.5766   -1.1075 O.3       1 MOL         0.0000
     37 H1         -9.1422   -8.5243   -0.5193 H         1 MOL         0.0000
     38 H2         -1.9735   -8.1202    1.8354 H         1 MOL         0.0000
     39 H3         -7.9205   -7.5208   -2.4312 H         1 MOL         0.0000
     40 H4         -9.6008   -7.1693    1.5084 H         1 MOL         0.0000
     41 H5         -3.5859   -6.9016    3.2743 H         1 MOL         0.0000
     42 H6         -1.1767   -7.0945   -0.2790 H         1 MOL         0.0000
     43 H7         -7.1572   -5.1713   -2.3209 H         1 MOL         0.0000
     44 H8         -8.8419   -4.8193    1.6284 H         1 MOL         0.0000
     45 H9         -4.4023   -4.6654    2.6056 H         1 MOL         0.0000
     46 H10        -1.9870   -4.8590   -0.9564 H         1 MOL         0.0000
     47 H11         0.6192    1.6768   -2.2370 H         1 MOL         0.0000
     48 H12         2.4538    1.6902   -3.9109 H         1 MOL         0.0000
     49 H13         4.8253   -2.3141   -4.4298 H         1 MOL         0.0000
     50 H14         5.8711   -1.4474   -3.2765 H         1 MOL         0.0000
     51 H15         0.6464   -5.8579   -1.8037 H         1 MOL         0.0000
     52 H16         2.4125   -6.0691   -1.8686 H         1 MOL         0.0000
     53 H17         1.4863   -6.8742   -0.6081 H         1 MOL         0.0000
     54 H18        -7.4747   -2.9628   -1.2665 H         1 MOL         0.0000
     55 H19        -8.1626   -2.8129    0.3509 H         1 MOL         0.0000
     56 H20         0.4489   -0.4561    0.6398 H         1 MOL         0.0000
     57 H21        -0.3463    0.8199   -0.2830 H         1 MOL         0.0000
     58 H22         2.6419   -4.8560    0.3023 H         1 MOL         0.0000
     59 H23         0.8735   -4.6396    0.3681 H         1 MOL         0.0000
     60 H24        -3.9547   -2.6344    1.2526 H         1 MOL         0.0000
     61 H25        -6.0824   -3.1943    1.2957 H         1 MOL         0.0000
     62 H26        -1.1075   -1.3185   -1.6924 H         1 MOL         0.0000
     63 H27        -2.7604   -2.5802   -1.3897 H         1 MOL         0.0000
@<TRIPOS>BOND
     1    1    3 ar
     2    1    4 ar
     3    2    5 ar
     4    2    6 ar
     5    3    7 ar
     6    4    8 ar
     7    5    9 ar
     8    6   10 ar
     9    7   14 ar
    10    8   14 ar
    11    9   15 ar
    12   10   15 ar
    13   11   12 ar
    14   11   16 ar
    15   12   17 ar
    16   13   16 ar
    17   13   18 ar
    18   13   19 1
    19   14   24 1
    20   15   27 1
    21   16   25 1
    22   17   18 ar
    23   17   34 1
    24   18   35 1
    25   19   31 2
    26   19   36 1
    27   20   27 1
    28   20   28 am
    29   20   32 2
    30   21   29 am
    31   21   30 am
    32   21   33 2
    33   22   34 1
    34   22   35 1
    35   23   26 1
    36   24   28 1
    37   25   29 1
    38   26   36 1
    39   27   30 1
    40    1   37 1
    41    2   38 1
    42    3   39 1
    43    4   40 1
    44    5   41 1
    45    6   42 1
    46    7   43 1
    47    8   44 1
    48    9   45 1
    49   10   46 1
    50   11   47 1
    51   12   48 1
    52   22   49 1
    53   22   50 1
    54   23   51 1
    55   23   52 1
    56   23   53 1
    57   24   54 1
    58   24   55 1
    59   25   56 1
    60   25   57 1
    61   26   58 1
    62   26   59 1
    63   27   60 1
    64   28   61 1
    65   29   62 1
    66   30   63 1
