@<TRIPOS>MOLECULE
AVX17269_0
   27    29     0     0     0
SMALL
NO_CHARGES

@<TRIPOS>ATOM
      1 C1          0.6617   -0.8335   -0.9502 C.ar      1 MOL         0.0000
      2 C2         -0.3677   -0.0155    1.5997 C.ar      1 MOL         0.0000
      3 C3         -0.1609    0.2652   -0.7891 C.ar      1 MOL         0.0000
      4 C4          0.9517   -1.5145    0.2158 C.ar      1 MOL         0.0000
      5 C5         -0.6676    0.6744    0.4385 C.ar      1 MOL         0.0000
      6 C6          0.4541   -1.1192    1.4490 C.ar      1 MOL         0.0000
      7 C7         -0.6667    1.2069   -1.7511 C.2       1 MOL         0.0000
      8 C8         -1.6640    6.0827   -0.6154 C.2       1 MOL         0.0000
      9 C9          1.6809   -2.8837    1.7287 C.3       1 MOL         0.0000
     10 C10        -1.5465    2.1775   -1.0010 C.3       1 MOL         0.0000
     11 C11        -2.0112    4.5953   -0.4823 C.3       1 MOL         0.0000
     12 C12        -1.0767    3.6097   -1.1621 C.3       1 MOL         0.0000
     13 O1         -2.4414    6.8952   -0.0435 O.co2     1 MOL         0.0000
     14 O2         -0.4137    1.1978   -2.9396 O.2       1 MOL         0.0000
     15 O3         -0.6148    6.3123   -1.2835 O.co2     1 MOL         0.0000
     16 O4          1.7366   -2.6236    0.3115 O.3       1 MOL         0.0000
     17 O5          0.8723   -1.9366    2.4556 O.3       1 MOL         0.0000
     18 O6         -1.4575    1.7950    0.3941 O.3       1 MOL         0.0000
     19 H1          1.0494   -1.1380   -1.9129 H         1 MOL         0.0000
     20 H2         -0.7507    0.2882    2.5655 H         1 MOL         0.0000
     21 H3          1.2699   -3.8878    1.8848 H         1 MOL         0.0000
     22 H4          2.7003   -2.8551    2.1305 H         1 MOL         0.0000
     23 H5         -2.5862    2.0529   -1.3222 H         1 MOL         0.0000
     24 H6         -3.0082    4.4742   -0.9245 H         1 MOL         0.0000
     25 H7         -2.1014    4.3522    0.5839 H         1 MOL         0.0000
     26 H8         -0.0606    3.6867   -0.7739 H         1 MOL         0.0000
     27 H9         -1.0384    3.8223   -2.2318 H         1 MOL         0.0000
@<TRIPOS>BOND
     1    1    3 ar
     2    1    4 ar
     3    2    5 ar
     4    2    6 ar
     5    3    5 ar
     6    3    7 1
     7    4    6 ar
     8    4   16 1
     9    5   18 1
    10    6   17 1
    11    7   10 1
    12    7   14 2
    13    8   11 1
    14    8   13 1
    15    8   15 2
    16    9   16 1
    17    9   17 1
    18   10   12 1
    19   10   18 1
    20   11   12 1
    21    1   19 1
    22    2   20 1
    23    9   21 1
    24    9   22 1
    25   10   23 1
    26   11   24 1
    27   11   25 1
    28   12   26 1
    29   12   27 1
