@<TRIPOS>MOLECULE
AVX17684_0
   54    58     0     0     0
SMALL
NO_CHARGES

@<TRIPOS>ATOM
      1 C1          4.0924    0.8181   -4.4391 C.ar      1 MOL         0.0000
      2 C2         -0.9129    0.8768    2.8543 C.ar      1 MOL         0.0000
      3 C3         -1.8109    1.5847    2.0580 C.ar      1 MOL         0.0000
      4 C4          3.0575   -0.0370   -4.8176 C.ar      1 MOL         0.0000
      5 C5          4.5680    0.7999   -3.1279 C.ar      1 MOL         0.0000
      6 C6          0.1514    0.1930    2.2689 C.ar      1 MOL         0.0000
      7 C7         -1.6448    1.6171    0.6725 C.ar      1 MOL         0.0000
      8 C8          2.4981   -0.9103   -3.8848 C.ar      1 MOL         0.0000
      9 C9          4.0085   -0.0734   -2.1952 C.ar      1 MOL         0.0000
     10 C10        -2.6731   -2.7598   -3.4841 C.ar      1 MOL         0.0000
     11 C11        -2.8317   -3.6606   -4.5400 C.ar      1 MOL         0.0000
     12 C12         0.3121    0.2117    0.8783 C.ar      1 MOL         0.0000
     13 C13        -1.8970   -1.0341   -5.0163 C.ar      1 MOL         0.0000
     14 C14        -0.5790    0.9389    0.0662 C.ar      1 MOL         0.0000
     15 C15         2.9735   -0.9285   -2.5736 C.ar      1 MOL         0.0000
     16 C16        -2.2086   -1.4541   -3.7209 C.ar      1 MOL         0.0000
     17 C17        -2.5170   -3.2209   -5.8094 C.ar      1 MOL         0.0000
     18 C18        -2.0623   -1.9429   -6.0413 C.ar      1 MOL         0.0000
     19 C19         1.4688   -0.5195    0.3002 C.2       1 MOL         0.0000
     20 C20        -1.4100    0.3273   -5.2907 C.2       1 MOL         0.0000
     21 C21        -0.4028    1.0007   -1.4264 C.3       1 MOL         0.0000
     22 C22        -0.0811   -1.5198   -1.4068 C.3       1 MOL         0.0000
     23 C23        -2.1596   -2.9919   -7.9312 C.3       1 MOL         0.0000
     24 C24         2.3717   -1.8681   -1.5691 C.3       1 MOL         0.0000
     25 C25        -2.0549   -0.5234   -2.5542 C.3       1 MOL         0.0000
     26 N1          1.2500   -1.2662   -0.8644 N.am      1 MOL         0.0000
     27 N2         -0.6200   -0.3174   -2.1491 N.4       1 MOL         0.0000
     28 O1         -2.2682    1.2525   -5.5483 O.co2     1 MOL         0.0000
     29 O2          2.5525   -0.4087    0.8716 O.2       1 MOL         0.0000
     30 O3         -0.1415    0.5490   -5.2646 O.co2     1 MOL         0.0000
     31 O4         -2.6085   -3.9524   -6.9533 O.3       1 MOL         0.0000
     32 O5         -1.8119   -1.7143   -7.3592 O.3       1 MOL         0.0000
     33 H1          4.5289    1.4971   -5.1658 H         1 MOL         0.0000
     34 H2         -1.0430    0.8573    3.9324 H         1 MOL         0.0000
     35 H3         -2.6399    2.1159    2.5166 H         1 MOL         0.0000
     36 H4          2.6879   -0.0238   -5.8388 H         1 MOL         0.0000
     37 H5          5.3744    1.4648   -2.8332 H         1 MOL         0.0000
     38 H6          0.8393   -0.3577    2.9052 H         1 MOL         0.0000
     39 H7         -2.3530    2.1803    0.0696 H         1 MOL         0.0000
     40 H8          1.6919   -1.5729   -4.1886 H         1 MOL         0.0000
     41 H9          4.3853   -0.0805   -1.1758 H         1 MOL         0.0000
     42 H10        -2.9139   -3.0787   -2.4728 H         1 MOL         0.0000
     43 H11        -3.1897   -4.6681   -4.3618 H         1 MOL         0.0000
     44 H12        -1.0682    1.7394   -1.8886 H         1 MOL         0.0000
     45 H13         0.6193    1.3208   -1.6654 H         1 MOL         0.0000
     46 H14        -0.0527   -2.3560   -2.1139 H         1 MOL         0.0000
     47 H15        -0.7779   -1.7572   -0.5950 H         1 MOL         0.0000
     48 H16        -1.2799   -3.3979   -8.4436 H         1 MOL         0.0000
     49 H17        -2.9577   -2.8413   -8.6673 H         1 MOL         0.0000
     50 H18         2.0120   -2.7792   -2.0596 H         1 MOL         0.0000
     51 H19         3.1124   -2.1718   -0.8219 H         1 MOL         0.0000
     52 H20        -2.4629    0.4673   -2.7815 H         1 MOL         0.0000
     53 H21        -2.5791   -0.9057   -1.6716 H         1 MOL         0.0000
     54 H22        -0.0826   -0.2516   -3.0240 H         1 MOL         0.0000
@<TRIPOS>BOND
     1    1    4 ar
     2    1    5 ar
     3    2    3 ar
     4    2    6 ar
     5    3    7 ar
     6    4    8 ar
     7    5    9 ar
     8    6   12 ar
     9    7   14 ar
    10    8   15 ar
    11    9   15 ar
    12   10   11 ar
    13   10   16 ar
    14   11   17 ar
    15   12   14 ar
    16   12   19 1
    17   13   16 ar
    18   13   18 ar
    19   13   20 1
    20   14   21 1
    21   15   24 1
    22   16   25 1
    23   17   18 ar
    24   17   31 1
    25   18   32 1
    26   19   26 am
    27   19   29 2
    28   20   28 1
    29   20   30 2
    30   21   27 1
    31   22   26 1
    32   22   27 1
    33   23   31 1
    34   23   32 1
    35   24   26 1
    36   25   27 1
    37    1   33 1
    38    2   34 1
    39    3   35 1
    40    4   36 1
    41    5   37 1
    42    6   38 1
    43    7   39 1
    44    8   40 1
    45    9   41 1
    46   10   42 1
    47   11   43 1
    48   21   44 1
    49   21   45 1
    50   22   46 1
    51   22   47 1
    52   23   48 1
    53   23   49 1
    54   24   50 1
    55   24   51 1
    56   25   52 1
    57   25   53 1
    58   27   54 1
