@<TRIPOS>MOLECULE
AVX17369_0
   35    37     0     0     0
SMALL
NO_CHARGES

@<TRIPOS>ATOM
      1 C1          2.6250   -0.3239    0.6896 C.ar      1 MOL         0.0000
      2 C2          1.9389   -1.5361    0.8582 C.ar      1 MOL         0.0000
      3 C3         -5.7387   -1.9800    0.9916 C.ar      1 MOL         0.0000
      4 C4         -6.5651   -1.2610    0.1281 C.ar      1 MOL         0.0000
      5 C5          1.9344    0.8425    0.3570 C.ar      1 MOL         0.0000
      6 C6          0.5528   -1.5992    0.6959 C.ar      1 MOL         0.0000
      7 C7         -4.3619   -2.0161    0.7706 C.ar      1 MOL         0.0000
      8 C8         -4.6379   -0.6141   -1.1775 C.ar      1 MOL         0.0000
      9 C9         -6.0147   -0.5781   -0.9564 C.ar      1 MOL         0.0000
     10 C10         0.5615    0.7680    0.1856 C.ar      1 MOL         0.0000
     11 C11        -0.1274   -0.4411    0.3516 C.ar      1 MOL         0.0000
     12 C12        -3.8115   -1.3331   -0.3139 C.ar      1 MOL         0.0000
     13 C13        -6.8862    0.1805   -1.8680 C.2       1 MOL         0.0000
     14 C14        -0.3792    1.8896   -0.1389 C.3       1 MOL         0.0000
     15 C15        -1.6076   -0.2363    0.1627 C.3       1 MOL         0.0000
     16 C16        -1.6244    1.1117   -0.5996 C.3       1 MOL         0.0000
     17 C17        -2.3252   -1.3721   -0.5528 C.3       1 MOL         0.0000
     18 O1         -6.3525    0.8024   -2.8616 O.co2     1 MOL         0.0000
     19 O2         -8.1541    0.1979   -1.6423 O.co2     1 MOL         0.0000
     20 O3         -1.5488    0.8969   -2.0093 O.3       1 MOL         0.0000
     21 H1          3.7026   -0.2933    0.8258 H         1 MOL         0.0000
     22 H2          2.4917   -2.4329    1.1245 H         1 MOL         0.0000
     23 H3         -6.1675   -2.5115    1.8361 H         1 MOL         0.0000
     24 H4         -7.6366   -1.2391    0.3096 H         1 MOL         0.0000
     25 H5          2.4647    1.7812    0.2371 H         1 MOL         0.0000
     26 H6          0.0305   -2.5385    0.8442 H         1 MOL         0.0000
     27 H7         -3.7257   -2.5787    1.4486 H         1 MOL         0.0000
     28 H8         -4.2073   -0.0820   -2.0226 H         1 MOL         0.0000
     29 H9         -0.5847    2.4633    0.7706 H         1 MOL         0.0000
     30 H10         0.0224    2.5380   -0.9232 H         1 MOL         0.0000
     31 H11        -2.0500   -0.0890    1.1544 H         1 MOL         0.0000
     32 H12        -2.5434    1.6751   -0.4066 H         1 MOL         0.0000
     33 H13        -1.9215   -2.3343   -0.2161 H         1 MOL         0.0000
     34 H14        -2.1220   -1.3178   -1.6289 H         1 MOL         0.0000
     35 H15        -1.5145    1.7746   -2.4186 H         1 MOL         0.0000
@<TRIPOS>BOND
     1    1    2 ar
     2    1    5 ar
     3    2    6 ar
     4    3    4 ar
     5    3    7 ar
     6    4    9 ar
     7    5   10 ar
     8    6   11 ar
     9    7   12 ar
    10    8    9 ar
    11    8   12 ar
    12    9   13 1
    13   10   11 ar
    14   10   14 1
    15   11   15 1
    16   12   17 1
    17   13   18 1
    18   13   19 2
    19   14   16 1
    20   15   16 1
    21   15   17 1
    22   16   20 1
    23    1   21 1
    24    2   22 1
    25    3   23 1
    26    4   24 1
    27    5   25 1
    28    6   26 1
    29    7   27 1
    30    8   28 1
    31   14   29 1
    32   14   30 1
    33   15   31 1
    34   16   32 1
    35   17   33 1
    36   17   34 1
    37   20   35 1
