@<TRIPOS>MOLECULE
AVX101133_0
   60    63     0     0     0
SMALL
NO_CHARGES

@<TRIPOS>ATOM
      1 C1          1.0544   -2.0969   -3.7616 C.ar      1 MOL         0.0000
      2 C2          1.3254   -1.2874   -4.8737 C.ar      1 MOL         0.0000
      3 C3          0.6444   -1.5308   -2.5516 C.ar      1 MOL         0.0000
      4 C4         -0.8787   -1.9064    0.3746 C.ar      1 MOL         0.0000
      5 C5          1.1904    0.0990   -4.7903 C.ar      1 MOL         0.0000
      6 C6         -0.6897   -3.2087    0.8381 C.ar      1 MOL         0.0000
      7 C7          0.5088   -0.1515   -2.4755 C.ar      1 MOL         0.0000
      8 C8          0.1764   -0.9939    0.4014 C.ar      1 MOL         0.0000
      9 C9          1.4211   -1.3775    0.9013 C.ar      1 MOL         0.0000
     10 C10         0.7749    0.6531   -3.5881 C.ar      1 MOL         0.0000
     11 C11         0.5584   -3.5971    1.3260 C.ar      1 MOL         0.0000
     12 C12         1.6072   -2.6756    1.3777 C.ar      1 MOL         0.0000
     13 C13         0.0897    0.7038   -1.3665 C.2       1 MOL         0.0000
     14 C14        -0.0579    0.3310   -0.0904 C.2       1 MOL         0.0000
     15 C15         2.5420   -0.4131    0.9398 C.2       1 MOL         0.0000
     16 C16        -2.0433    3.6463   -1.9635 C.2       1 MOL         0.0000
     17 C17         0.6169    2.1129   -3.2811 C.3       1 MOL         0.0000
     18 C18         2.0595   -5.2734    1.8942 C.3       1 MOL         0.0000
     19 C19         2.8253   -4.1967    2.6380 C.3       1 MOL         0.0000
     20 C20        -0.0870    2.1031   -1.9112 C.3       1 MOL         0.0000
     21 C21        -3.5561    3.6195   -2.1089 C.3       1 MOL         0.0000
     22 C22        -4.2070    4.9998   -2.0307 C.3       1 MOL         0.0000
     23 C23        -5.7303    4.9365   -2.1878 C.3       1 MOL         0.0000
     24 C24        -6.3495    6.3365   -2.1299 C.3       1 MOL         0.0000
     25 C25        -7.8646    6.3367   -2.2917 C.3       1 MOL         0.0000
     26 N1         -1.5011    2.3717   -2.0412 N.am      1 MOL         0.0000
     27 N2         -8.5067    5.5493   -1.2132 N.4       1 MOL         0.0000
     28 O1          3.3214   -0.3391   -0.0783 O.co2     1 MOL         0.0000
     29 O2          2.6909    0.3113    1.9899 O.co2     1 MOL         0.0000
     30 O3         -1.4035    4.6780   -1.7790 O.2       1 MOL         0.0000
     31 O4          0.6880   -4.8946    1.7480 O.3       1 MOL         0.0000
     32 O5          2.8455   -2.9868    1.8757 O.3       1 MOL         0.0000
     33 H1          1.1648   -3.1749   -3.8425 H         1 MOL         0.0000
     34 H2          1.6473   -1.7437   -5.8059 H         1 MOL         0.0000
     35 H3          0.4349   -2.1711   -1.7010 H         1 MOL         0.0000
     36 H4         -1.8557   -1.6203   -0.0083 H         1 MOL         0.0000
     37 H5          1.4108    0.7249   -5.6486 H         1 MOL         0.0000
     38 H6         -1.5147   -3.9150    0.8066 H         1 MOL         0.0000
     39 H7         -0.4061    1.0834    0.6150 H         1 MOL         0.0000
     40 H8          1.6104    2.5686   -3.1992 H         1 MOL         0.0000
     41 H9          0.0391    2.6315   -4.0528 H         1 MOL         0.0000
     42 H10         2.4807   -5.4550    0.8974 H         1 MOL         0.0000
     43 H11         2.0872   -6.2140    2.4532 H         1 MOL         0.0000
     44 H12         2.3777   -3.9850    3.6172 H         1 MOL         0.0000
     45 H13         3.8624   -4.5080    2.7965 H         1 MOL         0.0000
     46 H14         0.3312    2.8706   -1.2513 H         1 MOL         0.0000
     47 H15        -3.8217    3.1277   -3.0520 H         1 MOL         0.0000
     48 H16        -3.9440    2.9983   -1.2921 H         1 MOL         0.0000
     49 H17        -3.9702    5.4391   -1.0538 H         1 MOL         0.0000
     50 H18        -3.7809    5.6651   -2.7911 H         1 MOL         0.0000
     51 H19        -6.1542    4.3159   -1.3890 H         1 MOL         0.0000
     52 H20        -5.9827    4.4558   -3.1387 H         1 MOL         0.0000
     53 H21        -6.1107    6.7924   -1.1612 H         1 MOL         0.0000
     54 H22        -5.8936    6.9727   -2.8987 H         1 MOL         0.0000
     55 H23        -8.2846    7.3458   -2.2472 H         1 MOL         0.0000
     56 H24        -8.1546    5.8653   -3.2354 H         1 MOL         0.0000
     57 H25        -2.1289    1.5885   -2.1973 H         1 MOL         0.0000
     58 H26        -7.8452    5.3582   -0.4522 H         1 MOL         0.0000
     59 H27        -8.8469    4.6482   -1.5679 H         1 MOL         0.0000
     60 H28        -9.3072    6.0534   -0.8152 H         1 MOL         0.0000
@<TRIPOS>BOND
     1    1    2 ar
     2    1    3 ar
     3    2    5 ar
     4    3    7 ar
     5    4    6 ar
     6    4    8 ar
     7    5   10 ar
     8    6   11 ar
     9    7   10 ar
    10    7   13 1
    11    8    9 ar
    12    8   14 1
    13    9   12 ar
    14    9   15 1
    15   10   17 1
    16   11   12 ar
    17   11   31 1
    18   12   32 1
    19   13   14 2
    20   13   20 1
    21   15   28 1
    22   15   29 2
    23   16   21 1
    24   16   26 am
    25   16   30 2
    26   17   20 1
    27   18   19 1
    28   18   31 1
    29   19   32 1
    30   20   26 1
    31   21   22 1
    32   22   23 1
    33   23   24 1
    34   24   25 1
    35   25   27 1
    36    1   33 1
    37    2   34 1
    38    3   35 1
    39    4   36 1
    40    5   37 1
    41    6   38 1
    42   14   39 1
    43   17   40 1
    44   17   41 1
    45   18   42 1
    46   18   43 1
    47   19   44 1
    48   19   45 1
    49   20   46 1
    50   21   47 1
    51   21   48 1
    52   22   49 1
    53   22   50 1
    54   23   51 1
    55   23   52 1
    56   24   53 1
    57   24   54 1
    58   25   55 1
    59   25   56 1
    60   26   57 1
    61   27   58 1
    62   27   59 1
    63   27   60 1
