AVX17267_0
  -OEChem-04011314523D

 39 41  0     1  0  0  0  0  0999 V2000
    7.7152    3.6197   -1.3895 C   0  0  0  0  0  0  0  0  0  0  0  0
   -0.6321    4.6104    0.4523 C   0  0  0  0  0  0  0  0  0  0  0  0
    7.0396    4.1013   -2.5108 C   0  0  0  0  0  0  0  0  0  0  0  0
   -1.4774    4.5235   -0.6691 C   0  0  0  0  0  0  0  0  0  0  0  0
    7.0636    3.5532   -0.1579 C   0  0  0  0  0  0  0  0  0  0  0  0
    0.7429    4.3832    0.3340 C   0  0  0  0  0  0  0  0  0  0  0  0
    5.7125    4.5164   -2.4006 C   0  0  0  0  0  0  0  0  0  0  0  0
   -0.9629    4.2071   -1.9277 C   0  0  0  0  0  0  0  0  0  0  0  0
    5.7365    3.9683   -0.0477 C   0  0  0  0  0  0  0  0  0  0  0  0
    1.2465    4.0743   -0.9160 C   0  0  0  0  0  0  0  0  0  0  0  0
    5.0610    4.4499   -1.1690 C   0  0  0  0  0  0  0  0  0  0  0  0
    0.3970    3.9877   -2.0169 C   0  0  0  0  0  0  0  0  0  0  0  0
    2.4902    3.5256   -2.8568 C   0  0  0  0  0  0  0  0  0  0  0  0
    5.0803    3.8889    1.2504 C   0  0  0  0  0  0  0  0  0  0  0  0
    2.6539    3.7701   -1.3440 C   0  0  1  0  0  0  0  0  0  0  0  0
    6.0239    5.5387    4.3930 C   0  0  0  0  0  0  0  0  0  0  0  0
    3.6274    4.9056   -1.0784 C   0  0  0  0  0  0  0  0  0  0  0  0
    5.1767    4.6500    3.5075 C   0  0  0  0  0  0  0  0  0  0  0  0
    1.1299    3.6648   -3.1531 N   0  0  0  0  0  0  0  0  0  0  0  0
    3.3925    3.2596   -3.6362 O   0  0  0  0  0  0  0  0  0  0  0  0
    4.0658    3.2195    1.4797 O   0  0  0  0  0  0  0  0  0  0  0  0
    5.7276    4.6472    2.1861 O   0  0  0  0  0  0  0  0  0  0  0  0
    8.7486    3.2961   -1.4748 H   0  0  0  0  0  0  0  0  0  0  0  0
   -1.0550    4.8558    1.4230 H   0  0  0  0  0  0  0  0  0  0  0  0
    7.5476    4.1531   -3.4694 H   0  0  0  0  0  0  0  0  0  0  0  0
   -2.5425    4.7045   -0.5519 H   0  0  0  0  0  0  0  0  0  0  0  0
    7.6014    3.1770    0.7087 H   0  0  0  0  0  0  0  0  0  0  0  0
    1.3887    4.4469    1.2028 H   0  0  0  0  0  0  0  0  0  0  0  0
    5.1952    4.8895   -3.2805 H   0  0  0  0  0  0  0  0  0  0  0  0
   -1.6116    4.1385   -2.7933 H   0  0  0  0  0  0  0  0  0  0  0  0
    2.9901    2.8358   -0.8807 H   0  0  0  0  0  0  0  0  0  0  0  0
    7.0526    5.1713    4.4446 H   0  0  0  0  0  0  0  0  0  0  0  0
    6.0339    6.5655    4.0130 H   0  0  0  0  0  0  0  0  0  0  0  0
    5.6118    5.5785    5.4068 H   0  0  0  0  0  0  0  0  0  0  0  0
    3.4392    5.3327   -0.0852 H   0  0  0  0  0  0  0  0  0  0  0  0
    3.4542    5.7196   -1.7939 H   0  0  0  0  0  0  0  0  0  0  0  0
    4.1493    5.0230    3.4602 H   0  0  0  0  0  0  0  0  0  0  0  0
    5.1686    3.6243    3.8882 H   0  0  0  0  0  0  0  0  0  0  0  0
    0.7305    3.5456   -4.0766 H   0  0  0  0  0  0  0  0  0  0  0  0
  1  3  1  0  0  0  0
  1  5  2  0  0  0  0
  2  4  2  0  0  0  0
  2  6  1  0  0  0  0
  3  7  2  0  0  0  0
  4  8  1  0  0  0  0
  5  9  1  0  0  0  0
  6 10  2  0  0  0  0
  7 11  1  0  0  0  0
  8 12  2  0  0  0  0
  9 11  2  0  0  0  0
  9 14  1  0  0  0  0
 10 12  1  0  0  0  0
 10 15  1  0  0  0  0
 11 17  1  0  0  0  0
 12 19  1  0  0  0  0
 13 15  1  0  0  0  0
 13 19  1  0  0  0  0
 13 20  2  0  0  0  0
 14 21  2  0  0  0  0
 14 22  1  0  0  0  0
 15 17  1  0  0  0  0
 16 18  1  0  0  0  0
 18 22  1  0  0  0  0
  1 23  1  0  0  0  0
  2 24  1  0  0  0  0
  3 25  1  0  0  0  0
  4 26  1  0  0  0  0
  5 27  1  0  0  0  0
  6 28  1  0  0  0  0
  7 29  1  0  0  0  0
  8 30  1  0  0  0  0
 15 31  1  0  0  0  0
 16 32  1  0  0  0  0
 16 33  1  0  0  0  0
 16 34  1  0  0  0  0
 17 35  1  0  0  0  0
 17 36  1  0  0  0  0
 18 37  1  0  0  0  0
 18 38  1  0  0  0  0
 19 39  1  0  0  0  0
M  END
$$$$
