@<TRIPOS>MOLECULE
AVX101119_0
   64    67     0     0     0
SMALL
NO_CHARGES

@<TRIPOS>ATOM
      1 C1         -1.5667    4.8120   -2.5564 C.ar      1 MOL         0.0000
      2 C2         -1.4539    3.5969   -1.8809 C.ar      1 MOL         0.0000
      3 C3          4.1841    2.2970   -2.5842 C.ar      1 MOL         0.0000
      4 C4          2.4763    3.9859   -2.3231 C.ar      1 MOL         0.0000
      5 C5         -1.8733    4.8278   -3.9171 C.ar      1 MOL         0.0000
      6 C6          3.9746    2.2983   -3.9632 C.ar      1 MOL         0.0000
      7 C7          2.2669    3.9873   -3.7021 C.ar      1 MOL         0.0000
      8 C8          0.7042    1.9049    2.7438 C.ar      1 MOL         0.0000
      9 C9         -1.3491    0.2943    1.6535 C.ar      1 MOL         0.0000
     10 C10         0.8726    1.2794    1.5062 C.ar      1 MOL         0.0000
     11 C11        -1.9542    2.4131   -3.9267 C.ar      1 MOL         0.0000
     12 C12         3.4349    3.1407   -1.7641 C.ar      1 MOL         0.0000
     13 C13        -1.6477    2.3975   -2.5660 C.ar      1 MOL         0.0000
     14 C14        -0.1481    0.4787    0.9641 C.ar      1 MOL         0.0000
     15 C15        -0.4910    1.7067    3.4041 C.ar      1 MOL         0.0000
     16 C16        -1.4901    0.9230    2.8735 C.ar      1 MOL         0.0000
     17 C17         3.0161    3.1435   -4.5222 C.ar      1 MOL         0.0000
     18 C18        -2.0670    3.6283   -4.6022 C.ar      1 MOL         0.0000
     19 C19         2.1274    1.4740    0.7912 C.2       1 MOL         0.0000
     20 C20        -2.1569    1.1462   -4.6572 C.2       1 MOL         0.0000
     21 C21        -2.1588    1.6916    4.7825 C.3       1 MOL         0.0000
     22 C22         0.6169    0.2248   -2.7423 C.3       1 MOL         0.0000
     23 C23         1.8172    4.0343   -6.3729 C.3       1 MOL         0.0000
     24 C24        -2.4586    4.9537   -6.5376 C.3       1 MOL         0.0000
     25 C25         3.6607    3.1398   -0.2798 C.3       1 MOL         0.0000
     26 C26        -1.5189    1.1059   -1.8136 C.3       1 MOL         0.0000
     27 C27         0.0284   -0.1944   -0.3591 C.3       1 MOL         0.0000
     28 N1          2.4634    2.7876    0.4491 N.am      1 MOL         0.0000
     29 N2         -0.0883    0.7377   -1.5125 N.4       1 MOL         0.0000
     30 O1         -1.1405    0.5856   -5.2102 O.co2     1 MOL         0.0000
     31 O2          2.8381    0.4997    0.4925 O.2       1 MOL         0.0000
     32 O3         -3.3421    0.6511   -4.7132 O.co2     1 MOL         0.0000
     33 O4         -0.8328    2.2326    4.6117 O.3       1 MOL         0.0000
     34 O5         -2.5825    0.8600    3.6827 O.3       1 MOL         0.0000
     35 O6          2.8127    3.1456   -5.8680 O.3       1 MOL         0.0000
     36 O7         -2.3637    3.6663   -5.9320 O.3       1 MOL         0.0000
     37 H1         -1.4169    5.7458   -2.0226 H         1 MOL         0.0000
     38 H2         -1.2148    3.5947   -0.8208 H         1 MOL         0.0000
     39 H3          4.9329    1.6352   -2.1573 H         1 MOL         0.0000
     40 H4          1.8878    4.6466   -1.6917 H         1 MOL         0.0000
     41 H5         -1.9591    5.7784   -4.4368 H         1 MOL         0.0000
     42 H6          4.5617    1.6389   -4.5970 H         1 MOL         0.0000
     43 H7          1.5191    4.6481   -4.1314 H         1 MOL         0.0000
     44 H8          1.4825    2.5259    3.1751 H         1 MOL         0.0000
     45 H9         -2.1444   -0.3218    1.2477 H         1 MOL         0.0000
     46 H10        -2.1790    1.0952    5.7016 H         1 MOL         0.0000
     47 H11        -2.8660    2.5226    4.8865 H         1 MOL         0.0000
     48 H12         0.1334   -0.7074   -3.0401 H         1 MOL         0.0000
     49 H13         0.5225    0.9827   -3.5222 H         1 MOL         0.0000
     50 H14         1.6639    0.0578   -2.4818 H         1 MOL         0.0000
     51 H15         1.7570    3.9357   -7.4595 H         1 MOL         0.0000
     52 H16         2.0742    5.0618   -6.1033 H         1 MOL         0.0000
     53 H17         0.8521    3.7745   -5.9317 H         1 MOL         0.0000
     54 H18        -2.6996    4.8417   -7.5976 H         1 MOL         0.0000
     55 H19        -1.5089    5.4823   -6.4228 H         1 MOL         0.0000
     56 H20        -3.2511    5.5212   -6.0441 H         1 MOL         0.0000
     57 H21         4.4436    2.4231   -0.0088 H         1 MOL         0.0000
     58 H22         3.9871    4.1253    0.0687 H         1 MOL         0.0000
     59 H23        -2.0403    1.1544   -0.8516 H         1 MOL         0.0000
     60 H24        -1.9451    0.2725   -2.3825 H         1 MOL         0.0000
     61 H25         1.0153   -0.6671   -0.4403 H         1 MOL         0.0000
     62 H26        -0.7251   -0.9768   -0.5145 H         1 MOL         0.0000
     63 H27         1.8153    3.5387    0.6627 H         1 MOL         0.0000
     64 H28         0.3875    1.6173   -1.2528 H         1 MOL         0.0000
@<TRIPOS>BOND
     1    1    2 ar
     2    1    5 ar
     3    2   13 ar
     4    3    6 ar
     5    3   12 ar
     6    4    7 ar
     7    4   12 ar
     8    5   18 ar
     9    6   17 ar
    10    7   17 ar
    11    8   10 ar
    12    8   15 ar
    13    9   14 ar
    14    9   16 ar
    15   10   14 ar
    16   10   19 1
    17   11   13 ar
    18   11   18 ar
    19   11   20 1
    20   12   25 1
    21   13   26 1
    22   14   27 1
    23   15   16 ar
    24   15   33 1
    25   16   34 1
    26   17   35 1
    27   18   36 1
    28   19   28 am
    29   19   31 2
    30   20   30 1
    31   20   32 2
    32   21   33 1
    33   21   34 1
    34   22   29 1
    35   23   35 1
    36   24   36 1
    37   25   28 1
    38   26   29 1
    39   27   29 1
    40    1   37 1
    41    2   38 1
    42    3   39 1
    43    4   40 1
    44    5   41 1
    45    6   42 1
    46    7   43 1
    47    8   44 1
    48    9   45 1
    49   21   46 1
    50   21   47 1
    51   22   48 1
    52   22   49 1
    53   22   50 1
    54   23   51 1
    55   23   52 1
    56   23   53 1
    57   24   54 1
    58   24   55 1
    59   24   56 1
    60   25   57 1
    61   25   58 1
    62   26   59 1
    63   26   60 1
    64   27   61 1
    65   27   62 1
    66   28   63 1
    67   29   64 1
