AVX16756_0
  -OEChem-04011314513D

 34 36  0     0  0  0  0  0  0999 V2000
   -3.7136   -1.1313   -1.1483 C   0  0  0  0  0  0  0  0  0  0  0  0
   -4.0338   -2.2306   -1.9963 C   0  0  0  0  0  0  0  0  0  0  0  0
    3.0153    1.0844    1.1301 C   0  0  0  0  0  0  0  0  0  0  0  0
    0.2981    1.6540    1.3470 C   0  0  0  0  0  0  0  0  0  0  0  0
    2.0839    0.3075    0.4417 C   0  0  0  0  0  0  0  0  0  0  0  0
    0.7261    0.5990    0.5416 C   0  0  0  0  0  0  0  0  0  0  0  0
    2.5950    2.1611    1.9193 C   0  0  0  0  0  0  0  0  0  0  0  0
    1.2251    2.4215    2.0616 C   0  0  0  0  0  0  0  0  0  0  0  0
   -2.3560   -1.0096   -0.9492 C   0  0  0  0  0  0  0  0  0  0  0  0
   -2.9085   -2.9072   -2.4133 C   0  0  0  0  0  0  0  0  0  0  0  0
    2.5661   -0.8100   -0.3921 C   0  0  0  0  0  0  0  0  0  0  0  0
   -1.6258   -0.0132   -0.1469 C   0  0  0  0  0  0  0  0  0  0  0  0
    2.5420    4.5921    3.8663 C   0  0  0  0  0  0  0  0  0  0  0  0
    3.3427    4.2762    2.6124 C   0  0  0  0  0  0  0  0  0  0  0  0
    1.3885    3.6225    4.0726 C   0  0  0  0  0  0  0  0  0  0  0  0
   -0.2254   -0.1602   -0.1451 N   0  0  0  0  0  0  0  0  0  0  0  0
    2.6834   -1.9732    0.1442 O   0  5  0  0  0  0  0  0  0  0  0  0
    2.8521   -0.5804   -1.6249 O   0  0  0  0  0  0  0  0  0  0  0  0
   -2.2266    0.8493    0.4902 O   0  0  0  0  0  0  0  0  0  0  0  0
    3.6061    2.8770    2.5092 O   0  0  0  0  0  0  0  0  0  0  0  0
    0.6795    3.4000    2.8537 O   0  0  0  0  0  0  0  0  0  0  0  0
   -1.4736   -2.2174   -1.7829 S   0  0  0  0  0  0  0  0  0  0  0  0
   -2.8281   -4.2798   -3.4364 Cl  0  0  0  0  0  0  0  0  0  0  0  0
   -4.4464   -0.4663   -0.7086 H   0  0  0  0  0  0  0  0  0  0  0  0
   -5.0407   -2.5069   -2.2827 H   0  0  0  0  0  0  0  0  0  0  0  0
    4.0775    0.8665    1.0380 H   0  0  0  0  0  0  0  0  0  0  0  0
   -0.7647    1.8696    1.4400 H   0  0  0  0  0  0  0  0  0  0  0  0
    3.1899    4.5527    4.7496 H   0  0  0  0  0  0  0  0  0  0  0  0
    2.1653    5.6184    3.7878 H   0  0  0  0  0  0  0  0  0  0  0  0
    2.8483    4.6537    1.7069 H   0  0  0  0  0  0  0  0  0  0  0  0
    4.3096    4.7892    2.6648 H   0  0  0  0  0  0  0  0  0  0  0  0
    1.7274    2.6741    4.5112 H   0  0  0  0  0  0  0  0  0  0  0  0
    0.6809    4.0528    4.7903 H   0  0  0  0  0  0  0  0  0  0  0  0
    0.1442   -0.9230   -0.7223 H   0  0  0  0  0  0  0  0  0  0  0  0
  1  2  1  0  0  0  0
  1  9  2  0  0  0  0
  2 10  2  0  0  0  0
  3  5  2  0  0  0  0
  3  7  1  0  0  0  0
  4  6  2  0  0  0  0
  4  8  1  0  0  0  0
  5  6  1  0  0  0  0
  5 11  1  0  0  0  0
  6 16  1  0  0  0  0
  7  8  2  0  0  0  0
  7 20  1  0  0  0  0
  8 21  1  0  0  0  0
  9 12  1  0  0  0  0
  9 22  1  0  0  0  0
 10 22  1  0  0  0  0
 10 23  1  0  0  0  0
 11 17  1  0  0  0  0
 11 18  2  0  0  0  0
 12 16  1  0  0  0  0
 12 19  2  0  0  0  0
 13 14  1  0  0  0  0
 13 15  1  0  0  0  0
 14 20  1  0  0  0  0
 15 21  1  0  0  0  0
  1 24  1  0  0  0  0
  2 25  1  0  0  0  0
  3 26  1  0  0  0  0
  4 27  1  0  0  0  0
 13 28  1  0  0  0  0
 13 29  1  0  0  0  0
 14 30  1  0  0  0  0
 14 31  1  0  0  0  0
 15 32  1  0  0  0  0
 15 33  1  0  0  0  0
 16 34  1  0  0  0  0
M  CHG  1  17  -1
M  END
$$$$
