AVX101124_0
  -OEChem-04011314513D

 57 60  0     1  0  0  0  0  0999 V2000
    2.6138   -0.5418   -3.0073 C   0  0  0  0  0  0  0  0  0  0  0  0
    1.4909   -1.3596   -3.1976 C   0  0  0  0  0  0  0  0  0  0  0  0
    2.7287    0.2556   -1.8656 C   0  0  0  0  0  0  0  0  0  0  0  0
    1.8284    3.6706    2.1554 C   0  0  0  0  0  0  0  0  0  0  0  0
    0.4686   -1.3912   -2.2482 C   0  0  0  0  0  0  0  0  0  0  0  0
    1.6199    4.3939    3.3321 C   0  0  0  0  0  0  0  0  0  0  0  0
    1.7073    0.2221   -0.9263 C   0  0  0  0  0  0  0  0  0  0  0  0
    2.2974    2.3459    2.2031 C   0  0  0  0  0  0  0  0  0  0  0  0
    2.5634    1.7294    3.4281 C   0  0  0  0  0  0  0  0  0  0  0  0
    0.5861   -0.5906   -1.1214 C   0  0  0  0  0  0  0  0  0  0  0  0
    1.8901    3.7620    4.5285 C   0  0  0  0  0  0  0  0  0  0  0  0
    2.3491    2.4654    4.5753 C   0  0  0  0  0  0  0  0  0  0  0  0
    1.5493    0.9442    0.3347 C   0  0  0  0  0  0  0  0  0  0  0  0
    2.4934    1.6513    0.9658 C   0  0  0  0  0  0  0  0  0  0  0  0
    3.0526    0.3422    3.5158 C   0  0  0  0  0  0  0  0  0  0  0  0
   -1.7542    2.2282    1.3428 C   0  0  0  0  0  0  0  0  0  0  0  0
   -0.3706   -0.5185    0.0316 C   0  0  0  0  0  0  0  0  0  0  0  0
    2.1680    3.2047    6.6007 C   0  0  0  0  0  0  0  0  0  0  0  0
    0.1425    0.6943    0.8317 C   0  0  2  0  0  0  0  0  0  0  0  0
   -2.4099    3.4977    0.8241 C   0  0  0  0  0  0  0  0  0  0  0  0
   -3.0895    4.3285    1.9116 C   0  0  0  0  0  0  0  0  0  0  0  0
   -2.1091    4.7785    3.0005 C   0  0  0  0  0  0  0  0  0  0  0  0
   -2.8248    5.5869    4.0872 C   0  0  0  0  0  0  0  0  0  0  0  0
   -1.8996    6.0530    5.2046 C   0  0  0  0  0  0  0  0  0  0  0  0
   -0.6538    1.8731    0.5762 N   0  0  0  0  0  0  0  0  0  0  0  0
   -2.6542    6.8184    6.2246 N   0  3  0  0  0  0  0  0  0  0  0  0
    2.1931   -0.6124    3.5965 O   0  5  0  0  0  0  0  0  0  0  0  0
    4.3226    0.1331    3.5091 O   0  0  0  0  0  0  0  0  0  0  0  0
   -2.1765    1.5996    2.3094 O   0  0  0  0  0  0  0  0  0  0  0  0
    1.7469    4.3046    5.7683 O   0  0  0  0  0  0  0  0  0  0  0  0
    2.5510    2.0341    5.8501 O   0  0  0  0  0  0  0  0  0  0  0  0
    3.4020   -0.5290   -3.7551 H   0  0  0  0  0  0  0  0  0  0  0  0
    1.4197   -1.9764   -4.0894 H   0  0  0  0  0  0  0  0  0  0  0  0
    3.6024    0.8855   -1.7341 H   0  0  0  0  0  0  0  0  0  0  0  0
    1.6205    4.1501    1.2011 H   0  0  0  0  0  0  0  0  0  0  0  0
   -0.3944   -2.0330   -2.3913 H   0  0  0  0  0  0  0  0  0  0  0  0
    1.2586    5.4156    3.2989 H   0  0  0  0  0  0  0  0  0  0  0  0
    3.4692    1.7230    0.4887 H   0  0  0  0  0  0  0  0  0  0  0  0
   -1.4059   -0.3987   -0.3040 H   0  0  0  0  0  0  0  0  0  0  0  0
   -0.2819   -1.4355    0.6254 H   0  0  0  0  0  0  0  0  0  0  0  0
    3.0224    3.5293    7.2058 H   0  0  0  0  0  0  0  0  0  0  0  0
    1.3432    2.9370    7.2711 H   0  0  0  0  0  0  0  0  0  0  0  0
    0.1008    0.4990    1.9084 H   0  0  0  0  0  0  0  0  0  0  0  0
   -1.6635    4.1022    0.2956 H   0  0  0  0  0  0  0  0  0  0  0  0
   -3.1648    3.1896    0.0902 H   0  0  0  0  0  0  0  0  0  0  0  0
   -3.5301    5.2173    1.4433 H   0  0  0  0  0  0  0  0  0  0  0  0
   -3.9143    3.7638    2.3625 H   0  0  0  0  0  0  0  0  0  0  0  0
   -1.3189    5.3911    2.5497 H   0  0  0  0  0  0  0  0  0  0  0  0
   -1.6250    3.9026    3.4447 H   0  0  0  0  0  0  0  0  0  0  0  0
   -3.2801    6.4741    3.6302 H   0  0  0  0  0  0  0  0  0  0  0  0
   -3.6454    4.9927    4.5079 H   0  0  0  0  0  0  0  0  0  0  0  0
   -1.4200    5.2158    5.7201 H   0  0  0  0  0  0  0  0  0  0  0  0
   -1.1305    6.7273    4.8163 H   0  0  0  0  0  0  0  0  0  0  0  0
   -0.3950    2.4710   -0.2032 H   0  0  0  0  0  0  0  0  0  0  0  0
   -3.6656    6.6893    6.1088 H   0  0  0  0  0  0  0  0  0  0  0  0
   -2.4550    7.8227    6.1532 H   0  0  0  0  0  0  0  0  0  0  0  0
   -2.4047    6.5146    7.1727 H   0  0  0  0  0  0  0  0  0  0  0  0
  1  2  1  0  0  0  0
  1  3  2  0  0  0  0
  2  5  2  0  0  0  0
  3  7  1  0  0  0  0
  4  6  2  0  0  0  0
  4  8  1  0  0  0  0
  5 10  1  0  0  0  0
  6 11  1  0  0  0  0
  7 10  2  0  0  0  0
  7 13  1  0  0  0  0
  8  9  2  0  0  0  0
  8 14  1  0  0  0  0
  9 12  1  0  0  0  0
  9 15  1  0  0  0  0
 10 17  1  0  0  0  0
 11 12  2  0  0  0  0
 11 30  1  0  0  0  0
 12 31  1  0  0  0  0
 13 14  2  0  0  0  0
 13 19  1  0  0  0  0
 15 27  1  0  0  0  0
 15 28  2  0  0  0  0
 16 20  1  0  0  0  0
 16 25  1  0  0  0  0
 16 29  2  0  0  0  0
 17 19  1  0  0  0  0
 18 30  1  0  0  0  0
 18 31  1  0  0  0  0
 19 25  1  0  0  0  0
 20 21  1  0  0  0  0
 21 22  1  0  0  0  0
 22 23  1  0  0  0  0
 23 24  1  0  0  0  0
 24 26  1  0  0  0  0
  1 32  1  0  0  0  0
  2 33  1  0  0  0  0
  3 34  1  0  0  0  0
  4 35  1  0  0  0  0
  5 36  1  0  0  0  0
  6 37  1  0  0  0  0
 14 38  1  0  0  0  0
 17 39  1  0  0  0  0
 17 40  1  0  0  0  0
 18 41  1  0  0  0  0
 18 42  1  0  0  0  0
 19 43  1  0  0  0  0
 20 44  1  0  0  0  0
 20 45  1  0  0  0  0
 21 46  1  0  0  0  0
 21 47  1  0  0  0  0
 22 48  1  0  0  0  0
 22 49  1  0  0  0  0
 23 50  1  0  0  0  0
 23 51  1  0  0  0  0
 24 52  1  0  0  0  0
 24 53  1  0  0  0  0
 25 54  1  0  0  0  0
 26 55  1  0  0  0  0
 26 56  1  0  0  0  0
 26 57  1  0  0  0  0
M  CHG  2  26   1  27  -1
M  END
$$$$
