@<TRIPOS>MOLECULE
AVX17479_0
   24    25     0     0     0
SMALL
NO_CHARGES

@<TRIPOS>ATOM
      1 C1          2.0233   -2.4402    1.3044 C.ar      1 MOL         0.0000
      2 C2          2.7392   -0.2481    0.5839 C.ar      1 MOL         0.0000
      3 C3          0.9439   -1.8669    1.9764 C.ar      1 MOL         0.0000
      4 C4          1.6598    0.3253    1.2559 C.ar      1 MOL         0.0000
      5 C5          5.3626   -3.7419    1.6049 C.2       1 MOL         0.0000
      6 C6          2.9210   -1.6309    0.6081 C.ar      1 MOL         0.0000
      7 C7          0.7621   -0.4841    1.9522 C.ar      1 MOL         0.0000
      8 C8          5.2233   -2.6406    0.7943 C.2       1 MOL         0.0000
      9 C9          7.3469   -2.7180    2.0280 C.cat     1 MOL         0.0000
     10 C10         4.0749   -2.2433   -0.1112 C.3       1 MOL         0.0000
     11 N1          6.5646   -3.7461    2.2769 N.pl3     1 MOL         0.0000
     12 N2          8.5456   -2.5299    2.5719 N.pl3     1 MOL         0.0000
     13 F1         -0.2760    0.0664    2.5953 F         1 MOL         0.0000
     14 S1          6.6217   -1.6453    0.9104 S.3       1 MOL         0.0000
     15 H1          2.1571   -3.5185    1.3296 H         1 MOL         0.0000
     16 H2          3.4334    0.3904    0.0438 H         1 MOL         0.0000
     17 H3          0.2446   -2.4968    2.5179 H         1 MOL         0.0000
     18 H4          1.5181    1.4018    1.2377 H         1 MOL         0.0000
     19 H5          4.6530   -4.5447    1.7429 H         1 MOL         0.0000
     20 H6          3.7480   -3.1300   -0.6827 H         1 MOL         0.0000
     21 H7          4.4547   -1.5572   -0.8888 H         1 MOL         0.0000
     22 H8          6.8584   -4.4740    2.9253 H         1 MOL         0.0000
     23 H9          8.9518   -3.1686    3.2877 H         1 MOL         0.0000
     24 H10         9.1243   -1.6824    2.3929 H         1 MOL         0.0000
@<TRIPOS>BOND
     1    1    3 ar
     2    1    6 ar
     3    2    4 ar
     4    2    6 ar
     5    3    7 ar
     6    4    7 ar
     7    5    8 2
     8    5   11 1
     9    6   10 1
    10    7   13 1
    11    8   10 1
    12    8   14 1
    13    9   11 2
    14    9   12 1
    15    9   14 1
    16    1   15 1
    17    2   16 1
    18    3   17 1
    19    4   18 1
    20    5   19 1
    21   10   20 1
    22   10   21 1
    23   11   22 1
    24   12   23 1
    25   12   24 1
