@<TRIPOS>MOLECULE
AVX17285_1
   30    32     0     0     0
SMALL
NO_CHARGES

@<TRIPOS>ATOM
      1 C1         -0.1948   -1.2188   -1.7733 C.ar      1 MOL         0.0000
      2 C2          0.0489   -1.0083   -0.4029 C.ar      1 MOL         0.0000
      3 C3         -0.6214   -9.3361   -2.8674 C.ar      1 MOL         0.0000
      4 C4         -0.1402   -2.5032   -2.3253 C.ar      1 MOL         0.0000
      5 C5         -0.7763   -7.9536   -2.7672 C.ar      1 MOL         0.0000
      6 C6          0.6388   -9.8807   -3.1150 C.ar      1 MOL         0.0000
      7 C7          0.3519   -2.0775    0.4422 C.ar      1 MOL         0.0000
      8 C8          1.5891   -7.6599   -3.1623 C.ar      1 MOL         0.0000
      9 C9          0.1604   -3.5565   -1.4826 C.ar      1 MOL         0.0000
     10 C10         0.3289   -7.1155   -2.9147 C.ar      1 MOL         0.0000
     11 C11         1.7439   -9.0426   -3.2625 C.ar      1 MOL         0.0000
     12 C12         0.4008   -3.3366   -0.1231 C.ar      1 MOL         0.0000
     13 C13         0.3033   -4.9945   -1.6833 C.2       1 MOL         0.0000
     14 C14         0.6440   -5.6207   -0.3620 C.2       1 MOL         0.0000
     15 C15         0.1687   -5.6938   -2.8117 C.2       1 MOL         0.0000
     16 C16         3.0736   -9.6170   -3.5239 C.2       1 MOL         0.0000
     17 N1          0.6826   -4.5427    0.5281 N.am      1 MOL         0.0000
     18 O1          4.0774   -8.8211   -3.6564 O.co2     1 MOL         0.0000
     19 O2          0.8372   -6.8024   -0.1432 O.2       1 MOL         0.0000
     20 O3          3.1895  -10.8967   -3.6119 O.co2     1 MOL         0.0000
     21 H1         -0.4282   -0.3694   -2.4102 H         1 MOL         0.0000
     22 H2          0.0012    0.0003   -0.0007 H         1 MOL         0.0000
     23 H3         -1.4822   -9.9886   -2.7529 H         1 MOL         0.0000
     24 H4         -0.3291   -2.6545   -3.3823 H         1 MOL         0.0000
     25 H5         -1.7648   -7.5440   -2.5734 H         1 MOL         0.0000
     26 H6          0.7486  -10.9594   -3.1908 H         1 MOL         0.0000
     27 H7          0.5403   -1.9161    1.4974 H         1 MOL         0.0000
     28 H8          2.4546   -7.0105   -3.2780 H         1 MOL         0.0000
     29 H9         -0.0527   -5.1412   -3.7249 H         1 MOL         0.0000
     30 H10         0.8882   -4.6244    1.5170 H         1 MOL         0.0000
@<TRIPOS>BOND
     1    1    2 ar
     2    1    4 ar
     3    2    7 ar
     4    3    5 ar
     5    3    6 ar
     6    4    9 ar
     7    5   10 ar
     8    6   11 ar
     9    7   12 ar
    10    8   10 ar
    11    8   11 ar
    12    9   12 ar
    13    9   13 1
    14   10   15 1
    15   11   16 1
    16   12   17 1
    17   13   14 1
    18   13   15 2
    19   14   17 am
    20   14   19 2
    21   16   18 1
    22   16   20 2
    23    1   21 1
    24    2   22 1
    25    3   23 1
    26    4   24 1
    27    5   25 1
    28    6   26 1
    29    7   27 1
    30    8   28 1
    31   15   29 1
    32   17   30 1
