AVX38788_1
  -OEChem-04011315013D

 67 70  0     1  0  0  0  0  0999 V2000
   -0.5317   -3.6320   -1.6425 C   0  0  0  0  0  0  0  0  0  0  0  0
   -1.0776   -3.0700   -0.4885 C   0  0  0  0  0  0  0  0  0  0  0  0
   -1.2419   -4.6029   -2.3487 C   0  0  0  0  0  0  0  0  0  0  0  0
   -2.3337   -3.4790   -0.0406 C   0  0  0  0  0  0  0  0  0  0  0  0
   -4.7905   -8.9838    2.0789 C   0  0  0  0  0  0  0  0  0  0  0  0
   -4.6726   -9.8255    3.1852 C   0  0  0  0  0  0  0  0  0  0  0  0
   -2.4980   -5.0119   -1.9008 C   0  0  0  0  0  0  0  0  0  0  0  0
   -2.6600   -7.9731    2.6127 C   0  0  0  0  0  0  0  0  0  0  0  0
   -3.0439   -4.4499   -0.7467 C   0  0  0  0  0  0  0  0  0  0  0  0
   -3.7883   -8.0551    1.7963 C   0  0  0  0  0  0  0  0  0  0  0  0
   -3.5511   -9.7344    4.0100 C   0  0  0  0  0  0  0  0  0  0  0  0
   -2.5350   -8.8239    3.7112 C   0  0  0  0  0  0  0  0  0  0  0  0
   -3.2177   -6.0279   -2.6567 C   0  0  0  0  0  0  0  0  0  0  0  0
   -1.5966   -6.9949    2.3048 C   0  0  0  0  0  0  0  0  0  0  0  0
   -3.5214  -12.6909    8.8812 C   0  0  0  0  0  0  0  0  0  0  0  0
   -4.3722  -11.2423   -2.0702 C   0  0  0  0  0  0  0  0  0  0  0  0
   -3.2344  -10.2383   -1.7912 C   0  0  0  0  0  0  0  0  0  0  0  0
   -4.6576  -10.4435   -3.3591 C   0  0  0  0  0  0  0  0  0  0  0  0
   -1.2107   -9.8353    5.3279 C   0  0  0  0  0  0  0  0  0  0  0  0
   -4.0170   -9.2284   -2.6561 C   0  0  0  0  0  0  0  0  0  0  0  0
   -2.5122  -10.1653    6.0467 C   0  0  2  0  0  0  0  0  0  0  0  0
   -5.5787   -5.6917    1.7903 C   0  0  0  0  0  0  0  0  0  0  0  0
   -4.3924   -4.8716   -0.2421 C   0  0  0  0  0  0  0  0  0  0  0  0
   -3.9501   -7.1622    0.6091 C   0  0  0  0  0  0  0  0  0  0  0  0
   -3.5915  -11.5847    7.8218 C   0  0  0  0  0  0  0  0  0  0  0  0
   -3.1704   -8.3730   -3.5360 C   0  0  0  0  0  0  0  0  0  0  0  0
   -2.3247  -11.3064    7.0358 C   0  0  0  0  0  0  0  0  0  0  0  0
   -2.5953   -7.2726   -2.7964 N   0  0  0  0  0  0  0  0  0  0  0  0
   -4.3168   -5.7659    0.9691 N   0  3  2  0  0  0  0  0  0  0  0  0
   -0.6335   -7.3566    1.5345 O   0  5  0  0  0  0  0  0  0  0  0  0
   -4.5799  -12.9169    9.5293 O   0  5  0  0  0  0  0  0  0  0  0  0
   -4.3231   -5.7702   -3.1625 O   0  0  0  0  0  0  0  0  0  0  0  0
   -1.6752   -5.8197    2.8193 O   0  0  0  0  0  0  0  0  0  0  0  0
   -2.3937  -13.2575    8.9650 O   0  0  0  0  0  0  0  0  0  0  0  0
   -1.3952   -8.7103    4.4628 O   0  0  0  0  0  0  0  0  0  0  0  0
   -3.5021  -10.5729    5.0922 O   0  0  0  0  0  0  0  0  0  0  0  0
    0.4464   -3.3137   -1.9919 H   0  0  0  0  0  0  0  0  0  0  0  0
   -0.5240   -2.3143    0.0611 H   0  0  0  0  0  0  0  0  0  0  0  0
   -0.8051   -5.0339   -3.2459 H   0  0  0  0  0  0  0  0  0  0  0  0
   -2.7501   -3.0345    0.8595 H   0  0  0  0  0  0  0  0  0  0  0  0
   -5.6707   -9.0561    1.4453 H   0  0  0  0  0  0  0  0  0  0  0  0
   -5.4632  -10.5380    3.4041 H   0  0  0  0  0  0  0  0  0  0  0  0
   -4.0294  -12.2682   -2.2477 H   0  0  0  0  0  0  0  0  0  0  0  0
   -5.1801  -11.2607   -1.3344 H   0  0  0  0  0  0  0  0  0  0  0  0
   -3.1541   -9.9468   -0.7370 H   0  0  0  0  0  0  0  0  0  0  0  0
   -2.2446  -10.5300   -2.1524 H   0  0  0  0  0  0  0  0  0  0  0  0
   -4.1599  -10.8060   -4.2623 H   0  0  0  0  0  0  0  0  0  0  0  0
   -5.7261  -10.3174   -3.5703 H   0  0  0  0  0  0  0  0  0  0  0  0
   -0.4274   -9.5709    6.0460 H   0  0  0  0  0  0  0  0  0  0  0  0
   -0.8496  -10.6794    4.7264 H   0  0  0  0  0  0  0  0  0  0  0  0
   -4.7281   -8.6160   -2.0911 H   0  0  0  0  0  0  0  0  0  0  0  0
   -2.8964   -9.2839    6.5783 H   0  0  0  0  0  0  0  0  0  0  0  0
   -6.3955   -6.0876    1.1839 H   0  0  0  0  0  0  0  0  0  0  0  0
   -5.4289   -6.2940    2.6883 H   0  0  0  0  0  0  0  0  0  0  0  0
   -5.7509   -4.6441    2.0445 H   0  0  0  0  0  0  0  0  0  0  0  0
   -4.9968   -4.0043    0.0445 H   0  0  0  0  0  0  0  0  0  0  0  0
   -4.9459   -5.4255   -1.0081 H   0  0  0  0  0  0  0  0  0  0  0  0
   -3.0233   -7.0986    0.0247 H   0  0  0  0  0  0  0  0  0  0  0  0
   -4.7379   -7.5263   -0.0627 H   0  0  0  0  0  0  0  0  0  0  0  0
   -3.8597  -10.6656    8.3580 H   0  0  0  0  0  0  0  0  0  0  0  0
   -4.4186  -11.8096    7.1368 H   0  0  0  0  0  0  0  0  0  0  0  0
   -3.7673   -7.9519   -4.3507 H   0  0  0  0  0  0  0  0  0  0  0  0
   -2.3476   -8.9524   -3.9650 H   0  0  0  0  0  0  0  0  0  0  0  0
   -1.9884  -12.1829    6.4848 H   0  0  0  0  0  0  0  0  0  0  0  0
   -1.5260  -11.0127    7.7164 H   0  0  0  0  0  0  0  0  0  0  0  0
   -1.6642   -7.4085   -2.4163 H   0  0  0  0  0  0  0  0  0  0  0  0
   -3.5623   -5.3865    1.5643 H   0  0  0  0  0  0  0  0  0  0  0  0
  1  2  1  0  0  0  0
  1  3  2  0  0  0  0
  2  4  2  0  0  0  0
  3  7  1  0  0  0  0
  4  9  1  0  0  0  0
  5  6  2  0  0  0  0
  5 10  1  0  0  0  0
  6 11  1  0  0  0  0
  7  9  2  0  0  0  0
  7 13  1  0  0  0  0
  8 10  2  0  0  0  0
  8 12  1  0  0  0  0
  8 14  1  0  0  0  0
  9 23  1  0  0  0  0
 10 24  1  0  0  0  0
 11 12  2  0  0  0  0
 11 36  1  0  0  0  0
 12 35  1  0  0  0  0
 13 28  1  0  0  0  0
 13 32  2  0  0  0  0
 14 30  1  0  0  0  0
 14 33  2  0  0  0  0
 15 25  1  0  0  0  0
 15 31  1  0  0  0  0
 15 34  2  0  0  0  0
 16 17  1  0  0  0  0
 16 18  1  0  0  0  0
 17 20  1  0  0  0  0
 18 20  1  0  0  0  0
 19 21  1  0  0  0  0
 19 35  1  0  0  0  0
 20 26  1  0  0  0  0
 21 27  1  0  0  0  0
 21 36  1  0  0  0  0
 22 29  1  0  0  0  0
 23 29  1  0  0  0  0
 24 29  1  0  0  0  0
 25 27  1  0  0  0  0
 26 28  1  0  0  0  0
  1 37  1  0  0  0  0
  2 38  1  0  0  0  0
  3 39  1  0  0  0  0
  4 40  1  0  0  0  0
  5 41  1  0  0  0  0
  6 42  1  0  0  0  0
 16 43  1  0  0  0  0
 16 44  1  0  0  0  0
 17 45  1  0  0  0  0
 17 46  1  0  0  0  0
 18 47  1  0  0  0  0
 18 48  1  0  0  0  0
 19 49  1  0  0  0  0
 19 50  1  0  0  0  0
 20 51  1  0  0  0  0
 21 52  1  0  0  0  0
 22 53  1  0  0  0  0
 22 54  1  0  0  0  0
 22 55  1  0  0  0  0
 23 56  1  0  0  0  0
 23 57  1  0  0  0  0
 24 58  1  0  0  0  0
 24 59  1  0  0  0  0
 25 60  1  0  0  0  0
 25 61  1  0  0  0  0
 26 62  1  0  0  0  0
 26 63  1  0  0  0  0
 27 64  1  0  0  0  0
 27 65  1  0  0  0  0
 28 66  1  0  0  0  0
 29 67  1  0  0  0  0
M  CHG  3  29   1  30  -1  31  -1
M  END
$$$$
