@<TRIPOS>MOLECULE
AVX38789_1
   64    67     0     0     0
SMALL
NO_CHARGES

@<TRIPOS>ATOM
      1 C1          1.1315   -4.9555    5.1679 C.ar      1 MOL         0.0000
      2 C2          0.5851   -5.0961    3.8923 C.ar      1 MOL         0.0000
      3 C3          6.4315    1.2409    2.9544 C.2       1 MOL         0.0000
      4 C4          2.3769   -4.3486    5.3302 C.ar      1 MOL         0.0000
      5 C5          1.2841   -4.6299    2.7789 C.ar      1 MOL         0.0000
      6 C6          1.2325    0.1703    2.7127 C.ar      1 MOL         0.0000
      7 C7          0.9418    1.4878    3.0676 C.ar      1 MOL         0.0000
      8 C8          6.8225    0.0481    3.6081 C.2       1 MOL         0.0000
      9 C9          5.2153    1.5909    3.4933 C.2       1 MOL         0.0000
     10 C10         3.0759   -3.8823    4.2169 C.ar      1 MOL         0.0000
     11 C11         1.7187    0.8794    0.4529 C.ar      1 MOL         0.0000
     12 C12         2.5296   -4.0229    2.9412 C.ar      1 MOL         0.0000
     13 C13         1.6150   -0.1343    1.4059 C.ar      1 MOL         0.0000
     14 C14         1.0318    2.4998    2.1115 C.ar      1 MOL         0.0000
     15 C15         1.4414    2.1990    0.8106 C.ar      1 MOL         0.0000
     16 C16         5.8176   -0.2457    4.5002 C.2       1 MOL         0.0000
     17 C17         4.3747   -3.2531    4.4147 C.2       1 MOL         0.0000
     18 C18         2.1330    0.5542   -0.9273 C.2       1 MOL         0.0000
     19 C19        -0.8752    7.6936    3.4746 C.2       1 MOL         0.0000
     20 C20         1.6158    4.4745    0.3840 C.3       1 MOL         0.0000
     21 C21         0.4986    4.6512    1.4040 C.3       1 MOL         0.0000
     22 C22         4.3854   -1.5239    0.7699 C.3       1 MOL         0.0000
     23 C23         3.2598   -3.5311    1.7264 C.3       1 MOL         0.0000
     24 C24         1.9102   -1.5568    1.0567 C.3       1 MOL         0.0000
     25 C25         5.6137   -1.3585    5.4872 C.3       1 MOL         0.0000
     26 C26        -0.7035    6.2860    2.8914 C.3       1 MOL         0.0000
     27 C27         0.4600    6.0741    1.9420 C.3       1 MOL         0.0000
     28 N1          4.4077   -2.1075    5.2164 N.am      1 MOL         0.0000
     29 N2          3.2198   -2.0313    1.5800 N.4       1 MOL         0.0000
     30 O1          3.3855    0.5784   -1.2145 O.co2     1 MOL         0.0000
     31 O2         -1.8445    7.8609    4.2645 O.co2     1 MOL         0.0000
     32 O3          5.3891   -3.7192    3.8688 O.2       1 MOL         0.0000
     33 O4          1.2251    0.2598   -1.7880 O.co2     1 MOL         0.0000
     34 O5          0.0007    8.5228    3.0936 O.co2     1 MOL         0.0000
     35 O6          4.8341    0.6900    4.4365 O.3       1 MOL         0.0000
     36 O7          1.5811    3.1526   -0.1631 O.3       1 MOL         0.0000
     37 O8          0.7140    3.7699    2.5149 O.3       1 MOL         0.0000
     38 H1          0.5875   -5.3183    6.0354 H         1 MOL         0.0000
     39 H2         -0.3845   -5.5691    3.7665 H         1 MOL         0.0000
     40 H3          6.9685    1.7782    2.1861 H         1 MOL         0.0000
     41 H4          2.7924   -4.2459    6.3295 H         1 MOL         0.0000
     42 H5          0.8492   -4.7440    1.7895 H         1 MOL         0.0000
     43 H6          1.1531   -0.6135    3.4616 H         1 MOL         0.0000
     44 H7          0.6339    1.7141    4.0847 H         1 MOL         0.0000
     45 H8          7.7250   -0.5240    3.4466 H         1 MOL         0.0000
     46 H9          4.5295    2.4078    3.3228 H         1 MOL         0.0000
     47 H10         1.4958    5.1763   -0.4480 H         1 MOL         0.0000
     48 H11         2.6059    4.6399    0.8281 H         1 MOL         0.0000
     49 H12        -0.4754    4.4049    0.9596 H         1 MOL         0.0000
     50 H13         4.2862   -1.9202   -0.2423 H         1 MOL         0.0000
     51 H14         4.3430   -0.4330    0.7704 H         1 MOL         0.0000
     52 H15         5.3020   -1.8813    1.2432 H         1 MOL         0.0000
     53 H16         4.3170   -3.8159    1.7575 H         1 MOL         0.0000
     54 H17         2.8287   -3.9482    0.8099 H         1 MOL         0.0000
     55 H18         1.1498   -2.2364    1.4622 H         1 MOL         0.0000
     56 H19         1.9382   -1.7060   -0.0303 H         1 MOL         0.0000
     57 H20         6.4574   -2.0568    5.4615 H         1 MOL         0.0000
     58 H21         5.5442   -0.9700    6.5087 H         1 MOL         0.0000
     59 H22        -1.6272    6.0698    2.3400 H         1 MOL         0.0000
     60 H23        -0.6494    5.5693    3.7204 H         1 MOL         0.0000
     61 H24         1.4159    6.2840    2.4187 H         1 MOL         0.0000
     62 H25         0.3612    6.7387    1.0842 H         1 MOL         0.0000
     63 H26         3.5396   -1.7339    5.5859 H         1 MOL         0.0000
     64 H27         3.3376   -1.6429    2.5301 H         1 MOL         0.0000
@<TRIPOS>BOND
     1    1    2 ar
     2    1    4 ar
     3    2    5 ar
     4    3    8 1
     5    3    9 2
     6    4   10 ar
     7    5   12 ar
     8    6    7 ar
     9    6   13 ar
    10    7   14 ar
    11    8   16 2
    12    9   35 1
    13   10   12 ar
    14   10   17 1
    15   11   13 ar
    16   11   15 ar
    17   11   18 1
    18   12   23 1
    19   13   24 1
    20   14   15 ar
    21   14   37 1
    22   15   36 1
    23   16   25 1
    24   16   35 1
    25   17   28 am
    26   17   32 2
    27   18   30 1
    28   18   33 2
    29   19   26 1
    30   19   31 1
    31   19   34 2
    32   20   21 1
    33   20   36 1
    34   21   27 1
    35   21   37 1
    36   22   29 1
    37   23   29 1
    38   24   29 1
    39   25   28 1
    40   26   27 1
    41    1   38 1
    42    2   39 1
    43    3   40 1
    44    4   41 1
    45    5   42 1
    46    6   43 1
    47    7   44 1
    48    8   45 1
    49    9   46 1
    50   20   47 1
    51   20   48 1
    52   21   49 1
    53   22   50 1
    54   22   51 1
    55   22   52 1
    56   23   53 1
    57   23   54 1
    58   24   55 1
    59   24   56 1
    60   25   57 1
    61   25   58 1
    62   26   59 1
    63   26   60 1
    64   27   61 1
    65   27   62 1
    66   28   63 1
    67   29   64 1
