@<TRIPOS>MOLECULE
AVX38780_0
   75    78     0     0     0
SMALL
NO_CHARGES

@<TRIPOS>ATOM
      1 C1          5.9886   -0.0538   -2.1782 C.ar      1 MOL         0.0000
      2 C2          6.3504   -1.2103   -1.4875 C.ar      1 MOL         0.0000
      3 C3          5.0565    0.8252   -1.6266 C.ar      1 MOL         0.0000
      4 C4          5.7801   -1.4879   -0.2452 C.ar      1 MOL         0.0000
      5 C5         -0.1342   -2.7316    1.8471 C.ar      1 MOL         0.0000
      6 C6         -0.6740    1.1097    0.0526 C.ar      1 MOL         0.0000
      7 C7          0.2281    2.1584    2.0334 C.ar      1 MOL         0.0000
      8 C8         -1.0876   -3.7451    1.7464 C.ar      1 MOL         0.0000
      9 C9         -1.6483    0.4819    0.8286 C.ar      1 MOL         0.0000
     10 C10        -0.7463    1.5307    2.8094 C.ar      1 MOL         0.0000
     11 C11         4.4861    0.5476   -0.3843 C.ar      1 MOL         0.0000
     12 C12         0.9782   -3.5729   -0.1279 C.ar      1 MOL         0.0000
     13 C13         0.2643    1.9478    0.6550 C.ar      1 MOL         0.0000
     14 C14         4.8480   -0.6090    0.3065 C.ar      1 MOL         0.0000
     15 C15         0.9003   -2.6490    0.9145 C.ar      1 MOL         0.0000
     16 C16        -1.0023   -4.6776    0.7122 C.ar      1 MOL         0.0000
     17 C17         0.0173   -4.5783   -0.2372 C.ar      1 MOL         0.0000
     18 C18        -1.6845    0.6925    2.2070 C.ar      1 MOL         0.0000
     19 C19         3.2005   -1.5819    5.1214 C.2       1 MOL         0.0000
     20 C20         2.5507   -1.8408    3.9814 C.2       1 MOL         0.0000
     21 C21         3.5149    1.4820    0.1683 C.2       1 MOL         0.0000
     22 C22         2.0697   -3.4764   -1.1187 C.2       1 MOL         0.0000
     23 C23        -4.4983   -9.1761    0.8235 C.2       1 MOL         0.0000
     24 C24        -1.0650   -6.1927   -1.5070 C.3       1 MOL         0.0000
     25 C25        -1.5828   -6.7443   -0.1852 C.3       1 MOL         0.0000
     26 C26        -2.6156    0.3400    4.3667 C.3       1 MOL         0.0000
     27 C27         1.3128    2.6241   -0.1802 C.3       1 MOL         0.0000
     28 C28         4.2499   -0.9325    1.6439 C.3       1 MOL         0.0000
     29 C29         1.9102   -1.5569    1.0567 C.3       1 MOL         0.0000
     30 C30         3.0773   -2.7334    2.9064 C.3       1 MOL         0.0000
     31 C31        -3.2848   -8.2425    0.9052 C.3       1 MOL         0.0000
     32 C32        -2.8130   -7.6156   -0.3927 C.3       1 MOL         0.0000
     33 N1          2.3569    1.7092   -0.5824 N.am      1 MOL         0.0000
     34 N2          3.2198   -2.0313    1.5800 N.4       1 MOL         0.0000
     35 O1          1.8813   -2.7660   -2.1731 O.co2     1 MOL         0.0000
     36 O2         -4.8850   -9.6921    1.9078 O.co2     1 MOL         0.0000
     37 O3          3.7369    2.0544    1.2487 O.2       1 MOL         0.0000
     38 O4          3.1659   -4.1068   -0.8885 O.co2     1 MOL         0.0000
     39 O5         -4.9764   -9.3039   -0.3405 O.co2     1 MOL         0.0000
     40 O6          0.1349   -5.4426   -1.2936 O.3       1 MOL         0.0000
     41 O7         -1.9553   -5.6612    0.6781 O.3       1 MOL         0.0000
     42 O8         -2.6362    0.0809    2.9638 O.3       1 MOL         0.0000
     43 H1          6.4325    0.1630   -3.1456 H         1 MOL         0.0000
     44 H2          7.0761   -1.8945   -1.9176 H         1 MOL         0.0000
     45 H3          4.7820    1.7225   -2.1753 H         1 MOL         0.0000
     46 H4          6.0693   -2.3915    0.2849 H         1 MOL         0.0000
     47 H5         -0.2036   -2.0133    2.6598 H         1 MOL         0.0000
     48 H6         -0.6531    0.9399   -1.0206 H         1 MOL         0.0000
     49 H7          0.9552    2.8098    2.5114 H         1 MOL         0.0000
     50 H8         -1.8833   -3.8086    2.4835 H         1 MOL         0.0000
     51 H9         -2.3767   -0.1697    0.3534 H         1 MOL         0.0000
     52 H10        -0.7695    1.6990    3.8824 H         1 MOL         0.0000
     53 H11         2.7625   -0.9274    5.8671 H         1 MOL         0.0000
     54 H12         4.1722   -2.0147    5.3315 H         1 MOL         0.0000
     55 H13         1.5766   -1.3856    3.8223 H         1 MOL         0.0000
     56 H14        -0.8234   -7.0066   -2.1988 H         1 MOL         0.0000
     57 H15        -1.8000   -5.5393   -1.9944 H         1 MOL         0.0000
     58 H16        -0.8046   -7.3303    0.3225 H         1 MOL         0.0000
     59 H17        -3.4267   -0.2091    4.8513 H         1 MOL         0.0000
     60 H18        -2.7318    1.4125    4.5418 H         1 MOL         0.0000
     61 H19        -1.6585    0.0076    4.7756 H         1 MOL         0.0000
     62 H20         0.8690    3.0492   -1.0871 H         1 MOL         0.0000
     63 H21         1.7821    3.4471    0.3689 H         1 MOL         0.0000
     64 H22         5.0179   -1.2622    2.3517 H         1 MOL         0.0000
     65 H23         3.7510   -0.0583    2.0759 H         1 MOL         0.0000
     66 H24         2.1180   -1.0736    0.0935 H         1 MOL         0.0000
     67 H25         1.5642   -0.7774    1.7476 H         1 MOL         0.0000
     68 H26         2.3912   -3.5695    2.7401 H         1 MOL         0.0000
     69 H27         4.0663   -3.1364    3.1463 H         1 MOL         0.0000
     70 H28        -2.4602   -8.8483    1.3017 H         1 MOL         0.0000
     71 H29        -3.4948   -7.4616    1.6469 H         1 MOL         0.0000
     72 H30        -3.5881   -7.0062   -0.8541 H         1 MOL         0.0000
     73 H31        -2.5368   -8.3970   -1.1001 H         1 MOL         0.0000
     74 H32         2.2558    1.2629   -1.4882 H         1 MOL         0.0000
     75 H33         3.5872   -2.7334    0.9171 H         1 MOL         0.0000
@<TRIPOS>BOND
     1    1    2 ar
     2    1    3 ar
     3    2    4 ar
     4    3   11 ar
     5    4   14 ar
     6    5    8 ar
     7    5   15 ar
     8    6    9 ar
     9    6   13 ar
    10    7   10 ar
    11    7   13 ar
    12    8   16 ar
    13    9   18 ar
    14   10   18 ar
    15   11   14 ar
    16   11   21 1
    17   12   15 ar
    18   12   17 ar
    19   12   22 1
    20   13   27 1
    21   14   28 1
    22   15   29 1
    23   16   17 ar
    24   16   41 1
    25   17   40 1
    26   18   42 1
    27   19   20 2
    28   20   30 1
    29   21   33 am
    30   21   37 2
    31   22   35 1
    32   22   38 2
    33   23   31 1
    34   23   36 1
    35   23   39 2
    36   24   25 1
    37   24   40 1
    38   25   32 1
    39   25   41 1
    40   26   42 1
    41   27   33 1
    42   28   34 1
    43   29   34 1
    44   30   34 1
    45   31   32 1
    46    1   43 1
    47    2   44 1
    48    3   45 1
    49    4   46 1
    50    5   47 1
    51    6   48 1
    52    7   49 1
    53    8   50 1
    54    9   51 1
    55   10   52 1
    56   19   53 1
    57   19   54 1
    58   20   55 1
    59   24   56 1
    60   24   57 1
    61   25   58 1
    62   26   59 1
    63   26   60 1
    64   26   61 1
    65   27   62 1
    66   27   63 1
    67   28   64 1
    68   28   65 1
    69   29   66 1
    70   29   67 1
    71   30   68 1
    72   30   69 1
    73   31   70 1
    74   31   71 1
    75   32   72 1
    76   32   73 1
    77   33   74 1
    78   34   75 1
