@<TRIPOS>MOLECULE
AVX38781_0
   77    80     0     0     0
SMALL
NO_CHARGES

@<TRIPOS>ATOM
      1 C1          6.2574   -3.0359   -6.4943 C.ar      1 MOL         0.0000
      2 C2          5.9176   -1.7126   -6.7757 C.ar      1 MOL         0.0000
      3 C3          5.2563   -3.9933   -6.3306 C.ar      1 MOL         0.0000
      4 C4          4.5767   -1.3468   -6.8933 C.ar      1 MOL         0.0000
      5 C5         -1.3397   -2.3474   -6.2432 C.ar      1 MOL         0.0000
      6 C6         -2.1676   -3.1532   -5.4613 C.ar      1 MOL         0.0000
      7 C7          3.9154   -3.6275   -6.4482 C.ar      1 MOL         0.0000
      8 C8         -1.1264   -4.1284   -7.8644 C.ar      1 MOL         0.0000
      9 C9          3.5756   -2.3042   -6.7296 C.ar      1 MOL         0.0000
     10 C10        -0.8153   -2.8363   -7.4402 C.ar      1 MOL         0.0000
     11 C11        -2.4677   -4.4504   -5.8780 C.ar      1 MOL         0.0000
     12 C12        -1.9653   -4.9299   -7.0897 C.ar      1 MOL         0.0000
     13 C13         1.8785    0.3144  -10.5379 C.2       1 MOL         0.0000
     14 C14         2.3238   -0.3515   -9.4668 C.2       1 MOL         0.0000
     15 C15         2.8901   -4.6470   -6.2718 C.2       1 MOL         0.0000
     16 C16        -0.5767   -4.6391   -9.1370 C.2       1 MOL         0.0000
     17 C17        -5.2404   -7.8825   -2.2720 C.2       1 MOL         0.0000
     18 C18         2.5433   -9.3760   -2.3603 C.3       1 MOL         0.0000
     19 C19         3.6107   -8.3219   -2.6374 C.3       1 MOL         0.0000
     20 C20         1.6041   -9.5495   -3.5499 C.3       1 MOL         0.0000
     21 C21         2.9923   -6.9916   -3.0611 C.3       1 MOL         0.0000
     22 C22         0.9824   -8.2212   -3.9753 C.3       1 MOL         0.0000
     23 C23        -3.3682   -6.7696   -6.8954 C.3       1 MOL         0.0000
     24 C24         2.0535   -7.1607   -4.2634 C.3       1 MOL         0.0000
     25 C25        -3.2262   -6.5950   -5.3891 C.3       1 MOL         0.0000
     26 C26         2.1416   -1.8830   -6.8608 C.3       1 MOL         0.0000
     27 C27         0.0756   -1.9505   -8.2492 C.3       1 MOL         0.0000
     28 C28         2.3088   -1.8396   -9.3452 C.3       1 MOL         0.0000
     29 C29        -4.1808   -7.1927   -3.1392 C.3       1 MOL         0.0000
     30 C30         1.4067   -5.8275   -4.6344 C.3       1 MOL         0.0000
     31 C31        -4.3594   -7.2835   -4.6426 C.3       1 MOL         0.0000
     32 N1          2.4057   -4.8398   -4.9739 N.am      1 MOL         0.0000
     33 N2          1.5135   -2.3221   -8.1589 N.4       1 MOL         0.0000
     34 O1         -1.2510   -4.4541  -10.2155 O.co2     1 MOL         0.0000
     35 O2         -5.0851   -7.8009   -1.0228 O.co2     1 MOL         0.0000
     36 O3          2.4952   -5.3163   -7.2414 O.2       1 MOL         0.0000
     37 O4          0.5544   -5.2490   -9.1169 O.co2     1 MOL         0.0000
     38 O5         -6.1617   -8.4465   -2.9301 O.co2     1 MOL         0.0000
     39 O6         -2.2508   -6.1813   -7.5688 O.3       1 MOL         0.0000
     40 O7         -3.2689   -5.2001   -5.0577 O.3       1 MOL         0.0000
     41 H1          7.3015   -3.3214   -6.4028 H         1 MOL         0.0000
     42 H2          6.6976   -0.9675   -6.9028 H         1 MOL         0.0000
     43 H3          5.5340   -5.0209   -6.1105 H         1 MOL         0.0000
     44 H4          4.3229   -0.3132   -7.1132 H         1 MOL         0.0000
     45 H5         -1.1049   -1.3405   -5.9081 H         1 MOL         0.0000
     46 H6         -2.5624   -2.7682   -4.5250 H         1 MOL         0.0000
     47 H7          1.9205    1.3977  -10.5681 H         1 MOL         0.0000
     48 H8          1.4683   -0.2034  -11.3977 H         1 MOL         0.0000
     49 H9          2.7305    0.2153   -8.6333 H         1 MOL         0.0000
     50 H10         3.0225  -10.3333   -2.1263 H         1 MOL         0.0000
     51 H11         1.9625   -9.0832   -1.4770 H         1 MOL         0.0000
     52 H12         4.2238   -8.1748   -1.7409 H         1 MOL         0.0000
     53 H13         4.2817   -8.6803   -3.4278 H         1 MOL         0.0000
     54 H14         2.1583   -9.9794   -4.3933 H         1 MOL         0.0000
     55 H15         0.8121  -10.2618   -3.2924 H         1 MOL         0.0000
     56 H16         2.4404   -6.5651   -2.2136 H         1 MOL         0.0000
     57 H17         3.7921   -6.2830   -3.3074 H         1 MOL         0.0000
     58 H18         0.3639   -8.3804   -4.8667 H         1 MOL         0.0000
     59 H19         0.3108   -7.8678   -3.1823 H         1 MOL         0.0000
     60 H20        -3.3891   -7.8315   -7.1624 H         1 MOL         0.0000
     61 H21        -4.2865   -6.3050   -7.2769 H         1 MOL         0.0000
     62 H22         2.6443   -7.4844   -5.1273 H         1 MOL         0.0000
     63 H23        -2.2651   -6.9971   -5.0405 H         1 MOL         0.0000
     64 H24         1.5297   -2.3054   -6.0566 H         1 MOL         0.0000
     65 H25         2.0440   -0.7929   -6.8170 H         1 MOL         0.0000
     66 H26        -0.1864   -1.9818   -9.3145 H         1 MOL         0.0000
     67 H27         0.0046   -0.9046   -7.9239 H         1 MOL         0.0000
     68 H28         3.3265   -2.2176   -9.2080 H         1 MOL         0.0000
     69 H29         1.8721   -2.3254  -10.2236 H         1 MOL         0.0000
     70 H30        -3.2244   -7.6683   -2.8879 H         1 MOL         0.0000
     71 H31        -4.1076   -6.1422   -2.8309 H         1 MOL         0.0000
     72 H32         0.8235   -5.4375   -3.7948 H         1 MOL         0.0000
     73 H33         0.7460   -5.9440   -5.4985 H         1 MOL         0.0000
     74 H34        -5.2995   -6.8406   -4.9668 H         1 MOL         0.0000
     75 H35        -4.3583   -8.3285   -4.9512 H         1 MOL         0.0000
     76 H36         2.8088   -4.3091   -4.2086 H         1 MOL         0.0000
     77 H37         1.5709   -3.3536   -8.1731 H         1 MOL         0.0000
@<TRIPOS>BOND
     1    1    2 ar
     2    1    3 ar
     3    2    4 ar
     4    3    7 ar
     5    4    9 ar
     6    5    6 ar
     7    5   10 ar
     8    6   11 ar
     9    7    9 ar
    10    7   15 1
    11    8   10 ar
    12    8   12 ar
    13    8   16 1
    14    9   26 1
    15   10   27 1
    16   11   12 ar
    17   11   40 1
    18   12   39 1
    19   13   14 2
    20   14   28 1
    21   15   32 am
    22   15   36 2
    23   16   34 1
    24   16   37 2
    25   17   29 1
    26   17   35 1
    27   17   38 2
    28   18   19 1
    29   18   20 1
    30   19   21 1
    31   20   22 1
    32   21   24 1
    33   22   24 1
    34   23   25 1
    35   23   39 1
    36   24   30 1
    37   25   31 1
    38   25   40 1
    39   26   33 1
    40   27   33 1
    41   28   33 1
    42   29   31 1
    43   30   32 1
    44    1   41 1
    45    2   42 1
    46    3   43 1
    47    4   44 1
    48    5   45 1
    49    6   46 1
    50   13   47 1
    51   13   48 1
    52   14   49 1
    53   18   50 1
    54   18   51 1
    55   19   52 1
    56   19   53 1
    57   20   54 1
    58   20   55 1
    59   21   56 1
    60   21   57 1
    61   22   58 1
    62   22   59 1
    63   23   60 1
    64   23   61 1
    65   24   62 1
    66   25   63 1
    67   26   64 1
    68   26   65 1
    69   27   66 1
    70   27   67 1
    71   28   68 1
    72   28   69 1
    73   29   70 1
    74   29   71 1
    75   30   72 1
    76   30   73 1
    77   31   74 1
    78   31   75 1
    79   32   76 1
    80   33   77 1
