@<TRIPOS>MOLECULE
AVX38671_0
   49    51     0     0     0
SMALL
NO_CHARGES

@<TRIPOS>ATOM
      1 C1         -1.0196    1.5891    2.6054 C.ar      1 MOL         0.0000
      2 C2         -0.5090    0.3316    2.9272 C.ar      1 MOL         0.0000
      3 C3         -0.9200    2.0690    1.2994 C.ar      1 MOL         0.0000
      4 C4          0.1014   -0.4459    1.9431 C.ar      1 MOL         0.0000
      5 C5         -0.3096    1.2915    0.3153 C.ar      1 MOL         0.0000
      6 C6         -2.9121   -4.8908    1.2137 C.ar      1 MOL         0.0000
      7 C7         -3.6384   -5.3865    2.2991 C.ar      1 MOL         0.0000
      8 C8         -2.3276   -7.1497    0.5181 C.ar      1 MOL         0.0000
      9 C9          0.2011    0.0340    0.6371 C.ar      1 MOL         0.0000
     10 C10        -2.2606   -5.7673    0.3282 C.ar      1 MOL         0.0000
     11 C11        -3.6890   -6.7554    2.4641 C.ar      1 MOL         0.0000
     12 C12        -3.0513   -7.6134    1.5975 C.ar      1 MOL         0.0000
     13 C13        -1.6554   -8.0882   -0.3947 C.2       1 MOL         0.0000
     14 C14         2.3594   -0.5364   -0.5180 C.2       1 MOL         0.0000
     15 C15        -0.3978   -2.9316   -0.7095 C.2       1 MOL         0.0000
     16 C16        -4.0473   -8.7865    3.1185 C.3       1 MOL         0.0000
     17 C17         4.0129    0.8191   -1.8001 C.3       1 MOL         0.0000
     18 C18         0.6155   -4.9138    0.4403 C.3       1 MOL         0.0000
     19 C19        -1.4925   -5.1863   -0.8236 C.3       1 MOL         0.0000
     20 C20         0.8624   -0.8077   -0.4294 C.3       1 MOL         0.0000
     21 N1          2.6625    0.4125   -1.4845 N.am      1 MOL         0.0000
     22 N2          0.6837   -2.2227   -0.1939 N.am      1 MOL         0.0000
     23 N3         -0.4232   -4.2980   -0.3749 N.am      1 MOL         0.0000
     24 O1         -2.3015   -8.5266   -1.4191 O.co2     1 MOL         0.0000
     25 O2         -0.4433   -8.4407   -0.1393 O.co2     1 MOL         0.0000
     26 O3          3.1866   -1.1313    0.1701 O.2       1 MOL         0.0000
     27 O4         -1.2675   -2.3902   -1.3988 O.2       1 MOL         0.0000
     28 O5         -4.3445   -7.4163    3.4568 O.3       1 MOL         0.0000
     29 O6         -3.2275   -8.9189    1.9392 O.3       1 MOL         0.0000
     30 H1         -1.4961    2.1939    3.3715 H         1 MOL         0.0000
     31 H2         -0.5874   -0.0426    3.9437 H         1 MOL         0.0000
     32 H3         -1.3185    3.0475    1.0483 H         1 MOL         0.0000
     33 H4          0.4967   -1.4244    2.2030 H         1 MOL         0.0000
     34 H5         -0.2364    1.6736   -0.6995 H         1 MOL         0.0000
     35 H6         -2.8553   -3.8160    1.0585 H         1 MOL         0.0000
     36 H7         -4.1423   -4.7142    2.9841 H         1 MOL         0.0000
     37 H8         -3.5250   -9.2510    3.9628 H         1 MOL         0.0000
     38 H9         -4.9906   -9.3194    2.9517 H         1 MOL         0.0000
     39 H10         4.3061    1.6662   -1.1747 H         1 MOL         0.0000
     40 H11         4.0826    1.1161   -2.8501 H         1 MOL         0.0000
     41 H12         4.7074   -0.0064   -1.6227 H         1 MOL         0.0000
     42 H13         0.3469   -4.8551    1.4983 H         1 MOL         0.0000
     43 H14         1.5686   -4.3995    0.2901 H         1 MOL         0.0000
     44 H15         0.7376   -5.9651    0.1661 H         1 MOL         0.0000
     45 H16        -1.0399   -5.9814   -1.4261 H         1 MOL         0.0000
     46 H17        -2.1499   -4.6117   -1.4844 H         1 MOL         0.0000
     47 H18         0.4075   -0.6139   -1.4083 H         1 MOL         0.0000
     48 H19         1.9087    0.8508   -2.0054 H         1 MOL         0.0000
     49 H20         1.3693   -2.7156    0.3658 H         1 MOL         0.0000
@<TRIPOS>BOND
     1    1    2 ar
     2    1    3 ar
     3    2    4 ar
     4    3    5 ar
     5    4    9 ar
     6    5    9 ar
     7    6    7 ar
     8    6   10 ar
     9    7   11 ar
    10    8   10 ar
    11    8   12 ar
    12    8   13 1
    13    9   20 1
    14   10   19 1
    15   11   12 ar
    16   11   28 1
    17   12   29 1
    18   13   24 1
    19   13   25 2
    20   14   20 1
    21   14   21 am
    22   14   26 2
    23   15   22 am
    24   15   23 am
    25   15   27 2
    26   16   28 1
    27   16   29 1
    28   17   21 1
    29   18   23 1
    30   19   23 1
    31   20   22 1
    32    1   30 1
    33    2   31 1
    34    3   32 1
    35    4   33 1
    36    5   34 1
    37    6   35 1
    38    7   36 1
    39   16   37 1
    40   16   38 1
    41   17   39 1
    42   17   40 1
    43   17   41 1
    44   18   42 1
    45   18   43 1
    46   18   44 1
    47   19   45 1
    48   19   46 1
    49   20   47 1
    50   21   48 1
    51   22   49 1
