@<TRIPOS>MOLECULE
AVX38783_2
   68    71     0     0     0
SMALL
NO_CHARGES

@<TRIPOS>ATOM
      1 C1          0.2595   -3.7172   -7.9077 C.ar      1 MOL         0.0000
      2 C2          1.3322   -3.2332   -7.1589 C.ar      1 MOL         0.0000
      3 C3         -4.3711   -8.6746   -2.9019 C.2       1 MOL         0.0000
      4 C4         -0.9978   -3.8519   -7.3189 C.ar      1 MOL         0.0000
      5 C5          1.1475   -2.8840   -5.8211 C.ar      1 MOL         0.0000
      6 C6         -2.0092   -2.8069   -0.6774 C.ar      1 MOL         0.0000
      7 C7         -3.0247   -3.5450   -0.0691 C.ar      1 MOL         0.0000
      8 C8         -4.8471   -7.6885   -3.7986 C.2       1 MOL         0.0000
      9 C9         -3.3477   -8.0866   -2.1956 C.2       1 MOL         0.0000
     10 C10        -1.1824   -3.5027   -5.9811 C.ar      1 MOL         0.0000
     11 C11        -3.6620   -1.4625   -1.8206 C.ar      1 MOL         0.0000
     12 C12        -0.1098   -3.0187   -5.2322 C.ar      1 MOL         0.0000
     13 C13        -2.3274   -1.7637   -1.5477 C.ar      1 MOL         0.0000
     14 C14        -4.3596   -3.2350   -0.3307 C.ar      1 MOL         0.0000
     15 C15        -4.6780   -2.2086   -1.2227 C.ar      1 MOL         0.0000
     16 C16        -4.0808   -6.5681   -3.5762 C.2       1 MOL         0.0000
     17 C17         1.4316    1.2788   -3.3894 C.2       1 MOL         0.0000
     18 C18         1.0509    0.0831   -3.8524 C.2       1 MOL         0.0000
     19 C19        -2.5055   -3.6539   -5.3909 C.2       1 MOL         0.0000
     20 C20        -3.9946   -0.3633   -2.7497 C.2       1 MOL         0.0000
     21 C21        -7.2806   -3.9214    3.2535 C.2       1 MOL         0.0000
     22 C22        -6.8940   -2.9000   -1.1624 C.3       1 MOL         0.0000
     23 C23        -6.6061   -3.3666    0.2584 C.3       1 MOL         0.0000
     24 C24        -0.2799   -2.6362   -3.7915 C.3       1 MOL         0.0000
     25 C25        -1.2157   -0.9880   -2.1764 C.3       1 MOL         0.0000
     26 C26        -4.0685   -5.1953   -4.1841 C.3       1 MOL         0.0000
     27 C27        -0.3192   -0.2135   -4.3666 C.3       1 MOL         0.0000
     28 C28        -7.2999   -4.9330    2.1014 C.3       1 MOL         0.0000
     29 C29        -7.6275   -4.3950    0.7216 C.3       1 MOL         0.0000
     30 N1         -2.7943   -4.8840   -4.7909 N.am      1 MOL         0.0000
     31 N2         -1.0008   -1.3248   -3.6097 N.4       1 MOL         0.0000
     32 O1         -4.1459    0.8203   -2.2721 O.co2     1 MOL         0.0000
     33 O2         -6.4931   -4.1700    4.2071 O.co2     1 MOL         0.0000
     34 O3         -3.3299   -2.7260   -5.4488 O.2       1 MOL         0.0000
     35 O4         -4.1203   -0.6326   -4.0002 O.co2     1 MOL         0.0000
     36 O5         -8.0617   -2.9394    3.0941 O.co2     1 MOL         0.0000
     37 O6         -3.1645   -6.8025   -2.6005 O.3       1 MOL         0.0000
     38 O7         -5.9678   -1.8781   -1.5450 O.3       1 MOL         0.0000
     39 O8         -5.3116   -3.9813    0.3126 O.3       1 MOL         0.0000
     40 H1          0.4027   -3.9892   -8.9497 H         1 MOL         0.0000
     41 H2          2.3110   -3.1288   -7.6179 H         1 MOL         0.0000
     42 H3         -4.7288   -9.6874   -2.7852 H         1 MOL         0.0000
     43 H4         -1.8254   -4.2313   -7.9128 H         1 MOL         0.0000
     44 H5          1.9898   -2.5074   -5.2467 H         1 MOL         0.0000
     45 H6         -0.9717   -3.0499   -0.4630 H         1 MOL         0.0000
     46 H7         -2.7681   -4.3491    0.6151 H         1 MOL         0.0000
     47 H8         -5.6489   -7.7857   -4.5167 H         1 MOL         0.0000
     48 H9         -2.6864   -8.4291   -1.4133 H         1 MOL         0.0000
     49 H10         2.4443    1.4331   -3.0331 H         1 MOL         0.0000
     50 H11         0.7473    2.1193   -3.3581 H         1 MOL         0.0000
     51 H12         1.7775   -0.7250   -3.8671 H         1 MOL         0.0000
     52 H13        -6.8208   -3.7220   -1.8859 H         1 MOL         0.0000
     53 H14        -7.9001   -2.4733   -1.2335 H         1 MOL         0.0000
     54 H15        -6.6074   -2.5160    0.9536 H         1 MOL         0.0000
     55 H16        -0.8577   -3.3908   -3.2471 H         1 MOL         0.0000
     56 H17         0.6897   -2.5341   -3.2922 H         1 MOL         0.0000
     57 H18        -1.4067    0.0920   -2.1370 H         1 MOL         0.0000
     58 H19        -0.2604   -1.1716   -1.6681 H         1 MOL         0.0000
     59 H20        -4.8402   -5.1083   -4.9567 H         1 MOL         0.0000
     60 H21        -4.2760   -4.4295   -3.4294 H         1 MOL         0.0000
     61 H22        -0.2687   -0.5378   -5.4106 H         1 MOL         0.0000
     62 H23        -0.9853    0.6528   -4.3026 H         1 MOL         0.0000
     63 H24        -8.0655   -5.6752    2.3603 H         1 MOL         0.0000
     64 H25        -6.3369   -5.4584    2.0824 H         1 MOL         0.0000
     65 H26        -8.6135   -3.9345    0.6896 H         1 MOL         0.0000
     66 H27        -7.6151   -5.2086   -0.0032 H         1 MOL         0.0000
     67 H28        -2.1062   -5.6290   -4.8276 H         1 MOL         0.0000
     68 H29        -1.9300   -1.4433   -4.0454 H         1 MOL         0.0000
@<TRIPOS>BOND
     1    1    2 ar
     2    1    4 ar
     3    2    5 ar
     4    3    8 1
     5    3    9 2
     6    4   10 ar
     7    5   12 ar
     8    6    7 ar
     9    6   13 ar
    10    7   14 ar
    11    8   16 2
    12    9   37 1
    13   10   12 ar
    14   10   19 1
    15   11   13 ar
    16   11   15 ar
    17   11   20 1
    18   12   24 1
    19   13   25 1
    20   14   15 ar
    21   14   39 1
    22   15   38 1
    23   16   26 1
    24   16   37 1
    25   17   18 2
    26   18   27 1
    27   19   30 am
    28   19   34 2
    29   20   32 1
    30   20   35 2
    31   21   28 1
    32   21   33 1
    33   21   36 2
    34   22   23 1
    35   22   38 1
    36   23   29 1
    37   23   39 1
    38   24   31 1
    39   25   31 1
    40   26   30 1
    41   27   31 1
    42   28   29 1
    43    1   40 1
    44    2   41 1
    45    3   42 1
    46    4   43 1
    47    5   44 1
    48    6   45 1
    49    7   46 1
    50    8   47 1
    51    9   48 1
    52   17   49 1
    53   17   50 1
    54   18   51 1
    55   22   52 1
    56   22   53 1
    57   23   54 1
    58   24   55 1
    59   24   56 1
    60   25   57 1
    61   25   58 1
    62   26   59 1
    63   26   60 1
    64   27   61 1
    65   27   62 1
    66   28   63 1
    67   28   64 1
    68   29   65 1
    69   29   66 1
    70   30   67 1
    71   31   68 1
