AVX38671_0
  -OEChem-04011314563D

 49 51  0     1  0  0  0  0  0999 V2000
   -1.0196    1.5891    2.6054 C   0  0  0  0  0  0  0  0  0  0  0  0
   -0.5090    0.3316    2.9272 C   0  0  0  0  0  0  0  0  0  0  0  0
   -0.9200    2.0690    1.2994 C   0  0  0  0  0  0  0  0  0  0  0  0
    0.1014   -0.4459    1.9431 C   0  0  0  0  0  0  0  0  0  0  0  0
   -0.3096    1.2915    0.3153 C   0  0  0  0  0  0  0  0  0  0  0  0
   -2.9121   -4.8908    1.2137 C   0  0  0  0  0  0  0  0  0  0  0  0
   -3.6384   -5.3865    2.2991 C   0  0  0  0  0  0  0  0  0  0  0  0
   -2.3276   -7.1497    0.5181 C   0  0  0  0  0  0  0  0  0  0  0  0
    0.2011    0.0340    0.6371 C   0  0  0  0  0  0  0  0  0  0  0  0
   -2.2606   -5.7673    0.3282 C   0  0  0  0  0  0  0  0  0  0  0  0
   -3.6890   -6.7554    2.4641 C   0  0  0  0  0  0  0  0  0  0  0  0
   -3.0513   -7.6134    1.5975 C   0  0  0  0  0  0  0  0  0  0  0  0
   -1.6554   -8.0882   -0.3947 C   0  0  0  0  0  0  0  0  0  0  0  0
    2.3594   -0.5364   -0.5180 C   0  0  0  0  0  0  0  0  0  0  0  0
   -0.3978   -2.9316   -0.7095 C   0  0  0  0  0  0  0  0  0  0  0  0
   -4.0473   -8.7865    3.1185 C   0  0  0  0  0  0  0  0  0  0  0  0
    4.0129    0.8191   -1.8001 C   0  0  0  0  0  0  0  0  0  0  0  0
    0.6155   -4.9138    0.4403 C   0  0  0  0  0  0  0  0  0  0  0  0
   -1.4925   -5.1863   -0.8236 C   0  0  0  0  0  0  0  0  0  0  0  0
    0.8624   -0.8077   -0.4294 C   0  0  1  0  0  0  0  0  0  0  0  0
    2.6625    0.4125   -1.4845 N   0  0  0  0  0  0  0  0  0  0  0  0
    0.6837   -2.2227   -0.1939 N   0  0  0  0  0  0  0  0  0  0  0  0
   -0.4232   -4.2980   -0.3749 N   0  0  0  0  0  0  0  0  0  0  0  0
   -2.3015   -8.5266   -1.4191 O   0  5  0  0  0  0  0  0  0  0  0  0
   -0.4433   -8.4407   -0.1393 O   0  0  0  0  0  0  0  0  0  0  0  0
    3.1866   -1.1313    0.1701 O   0  0  0  0  0  0  0  0  0  0  0  0
   -1.2675   -2.3902   -1.3988 O   0  0  0  0  0  0  0  0  0  0  0  0
   -4.3445   -7.4163    3.4568 O   0  0  0  0  0  0  0  0  0  0  0  0
   -3.2275   -8.9189    1.9392 O   0  0  0  0  0  0  0  0  0  0  0  0
   -1.4961    2.1939    3.3715 H   0  0  0  0  0  0  0  0  0  0  0  0
   -0.5874   -0.0426    3.9437 H   0  0  0  0  0  0  0  0  0  0  0  0
   -1.3185    3.0475    1.0483 H   0  0  0  0  0  0  0  0  0  0  0  0
    0.4967   -1.4244    2.2030 H   0  0  0  0  0  0  0  0  0  0  0  0
   -0.2364    1.6736   -0.6995 H   0  0  0  0  0  0  0  0  0  0  0  0
   -2.8553   -3.8160    1.0585 H   0  0  0  0  0  0  0  0  0  0  0  0
   -4.1423   -4.7142    2.9841 H   0  0  0  0  0  0  0  0  0  0  0  0
   -3.5250   -9.2510    3.9628 H   0  0  0  0  0  0  0  0  0  0  0  0
   -4.9906   -9.3194    2.9517 H   0  0  0  0  0  0  0  0  0  0  0  0
    4.3061    1.6662   -1.1747 H   0  0  0  0  0  0  0  0  0  0  0  0
    4.0826    1.1161   -2.8501 H   0  0  0  0  0  0  0  0  0  0  0  0
    4.7074   -0.0064   -1.6227 H   0  0  0  0  0  0  0  0  0  0  0  0
    0.3469   -4.8551    1.4983 H   0  0  0  0  0  0  0  0  0  0  0  0
    1.5686   -4.3995    0.2901 H   0  0  0  0  0  0  0  0  0  0  0  0
    0.7376   -5.9651    0.1661 H   0  0  0  0  0  0  0  0  0  0  0  0
   -1.0399   -5.9814   -1.4261 H   0  0  0  0  0  0  0  0  0  0  0  0
   -2.1499   -4.6117   -1.4844 H   0  0  0  0  0  0  0  0  0  0  0  0
    0.4075   -0.6139   -1.4083 H   0  0  0  0  0  0  0  0  0  0  0  0
    1.9087    0.8508   -2.0054 H   0  0  0  0  0  0  0  0  0  0  0  0
    1.3693   -2.7156    0.3658 H   0  0  0  0  0  0  0  0  0  0  0  0
  1  2  2  0  0  0  0
  1  3  1  0  0  0  0
  2  4  1  0  0  0  0
  3  5  2  0  0  0  0
  4  9  2  0  0  0  0
  5  9  1  0  0  0  0
  6  7  2  0  0  0  0
  6 10  1  0  0  0  0
  7 11  1  0  0  0  0
  8 10  2  0  0  0  0
  8 12  1  0  0  0  0
  8 13  1  0  0  0  0
  9 20  1  0  0  0  0
 10 19  1  0  0  0  0
 11 12  2  0  0  0  0
 11 28  1  0  0  0  0
 12 29  1  0  0  0  0
 13 24  1  0  0  0  0
 13 25  2  0  0  0  0
 14 20  1  0  0  0  0
 14 21  1  0  0  0  0
 14 26  2  0  0  0  0
 15 22  1  0  0  0  0
 15 23  1  0  0  0  0
 15 27  2  0  0  0  0
 16 28  1  0  0  0  0
 16 29  1  0  0  0  0
 17 21  1  0  0  0  0
 18 23  1  0  0  0  0
 19 23  1  0  0  0  0
 20 22  1  0  0  0  0
  1 30  1  0  0  0  0
  2 31  1  0  0  0  0
  3 32  1  0  0  0  0
  4 33  1  0  0  0  0
  5 34  1  0  0  0  0
  6 35  1  0  0  0  0
  7 36  1  0  0  0  0
 16 37  1  0  0  0  0
 16 38  1  0  0  0  0
 17 39  1  0  0  0  0
 17 40  1  0  0  0  0
 17 41  1  0  0  0  0
 18 42  1  0  0  0  0
 18 43  1  0  0  0  0
 18 44  1  0  0  0  0
 19 45  1  0  0  0  0
 19 46  1  0  0  0  0
 20 47  1  0  0  0  0
 21 48  1  0  0  0  0
 22 49  1  0  0  0  0
M  CHG  1  24  -1
M  END
$$$$
