AVX38749_2
  -OEChem-04011314583D

 64 67  0     1  0  0  0  0  0999 V2000
   -2.0130    1.1304   -1.6264 C   0  0  0  0  0  0  0  0  0  0  0  0
   -1.6942    2.0339   -0.6017 C   0  0  0  0  0  0  0  0  0  0  0  0
   -1.3986   -0.1214   -1.6859 C   0  0  0  0  0  0  0  0  0  0  0  0
   -0.7561    1.6986    0.3777 C   0  0  0  0  0  0  0  0  0  0  0  0
    2.4990   -0.4695    3.7996 C   0  0  0  0  0  0  0  0  0  0  0  0
    3.3998   -1.1088    4.6517 C   0  0  0  0  0  0  0  0  0  0  0  0
    4.3020    0.0550    2.2765 C   0  0  0  0  0  0  0  0  0  0  0  0
   -0.4605   -0.4407   -0.7175 C   0  0  0  0  0  0  0  0  0  0  0  0
   -0.1380    0.4594    0.3068 C   0  0  0  0  0  0  0  0  0  0  0  0
    2.9503    0.1164    2.6165 C   0  0  0  0  0  0  0  0  0  0  0  0
    4.7538   -1.1584    4.3191 C   0  0  0  0  0  0  0  0  0  0  0  0
    5.2011   -0.5962    3.1214 C   0  0  0  0  0  0  0  0  0  0  0  0
    4.7744    0.6684    1.0183 C   0  0  0  0  0  0  0  0  0  0  0  0
    2.9486   -3.2318    0.7324 C   0  0  0  0  0  0  0  0  0  0  0  0
    8.4275   -3.1370    8.1996 C   0  0  0  0  0  0  0  0  0  0  0  0
    0.2911   -1.7253   -0.5655 C   0  0  0  0  0  0  0  0  0  0  0  0
    7.2617   -1.6093    3.4640 C   0  0  0  0  0  0  0  0  0  0  0  0
    0.8646   -0.1477    1.2506 C   0  0  1  0  0  0  0  0  0  0  0  0
    1.4297   -1.2961    0.3775 C   0  0  1  0  0  0  0  0  0  0  0  0
    6.9701   -1.4744    4.9527 C   0  0  2  0  0  0  0  0  0  0  0  0
    1.9534    0.8064    1.7243 C   0  0  0  0  0  0  0  0  0  0  0  0
    3.2619   -4.3097    1.7551 C   0  0  0  0  0  0  0  0  0  0  0  0
    7.6007   -2.2495    7.2618 C   0  0  0  0  0  0  0  0  0  0  0  0
    7.8173   -2.4366    5.7724 C   0  0  0  0  0  0  0  0  0  0  0  0
    4.3878   -5.2357    1.3017 C   0  0  0  0  0  0  0  0  0  0  0  0
    4.6469   -6.3257    2.3305 C   0  0  0  0  0  0  0  0  0  0  0  0
    1.9216   -2.3975    1.1602 N   0  0  0  0  0  0  0  0  0  0  0  0
    5.7752   -7.1703    1.8699 N   0  3  0  0  0  0  0  0  0  0  0  0
    4.7905   -0.0501   -0.0472 O   0  5  0  0  0  0  0  0  0  0  0  0
    8.2402   -2.9760    9.4367 O   0  5  0  0  0  0  0  0  0  0  0  0
    5.1516    1.8969    1.0376 O   0  0  0  0  0  0  0  0  0  0  0  0
    3.5407   -3.1273   -0.3384 O   0  0  0  0  0  0  0  0  0  0  0  0
    9.1987   -3.9435    7.6040 O   0  0  0  0  0  0  0  0  0  0  0  0
    6.5112   -0.6416    2.7235 O   0  0  0  0  0  0  0  0  0  0  0  0
    5.5921   -1.7817    5.2054 O   0  0  0  0  0  0  0  0  0  0  0  0
   -2.7498    1.4064   -2.3760 H   0  0  0  0  0  0  0  0  0  0  0  0
   -2.1879    3.0013   -0.5663 H   0  0  0  0  0  0  0  0  0  0  0  0
   -1.6542   -0.8234   -2.4723 H   0  0  0  0  0  0  0  0  0  0  0  0
   -0.5282    2.3982    1.1746 H   0  0  0  0  0  0  0  0  0  0  0  0
    1.4469   -0.4289    4.0694 H   0  0  0  0  0  0  0  0  0  0  0  0
    3.0412   -1.5525    5.5765 H   0  0  0  0  0  0  0  0  0  0  0  0
   -0.3540   -2.4884   -0.1161 H   0  0  0  0  0  0  0  0  0  0  0  0
    0.6841   -2.0923   -1.5187 H   0  0  0  0  0  0  0  0  0  0  0  0
    8.3221   -1.4280    3.2586 H   0  0  0  0  0  0  0  0  0  0  0  0
    7.0081   -2.6080    3.0857 H   0  0  0  0  0  0  0  0  0  0  0  0
    0.3271   -0.5529    2.1183 H   0  0  0  0  0  0  0  0  0  0  0  0
    2.2751   -0.9348   -0.2249 H   0  0  0  0  0  0  0  0  0  0  0  0
    7.1563   -0.4467    5.2933 H   0  0  0  0  0  0  0  0  0  0  0  0
    1.4981    1.6483    2.2583 H   0  0  0  0  0  0  0  0  0  0  0  0
    2.4673    1.2377    0.8577 H   0  0  0  0  0  0  0  0  0  0  0  0
    2.3483   -4.8904    1.9311 H   0  0  0  0  0  0  0  0  0  0  0  0
    3.5368   -3.8191    2.6965 H   0  0  0  0  0  0  0  0  0  0  0  0
    7.8659   -1.2140    7.5096 H   0  0  0  0  0  0  0  0  0  0  0  0
    6.5389   -2.3765    7.5075 H   0  0  0  0  0  0  0  0  0  0  0  0
    7.5855   -3.4512    5.4531 H   0  0  0  0  0  0  0  0  0  0  0  0
    8.8594   -2.2379    5.5239 H   0  0  0  0  0  0  0  0  0  0  0  0
    5.3025   -4.6516    1.1378 H   0  0  0  0  0  0  0  0  0  0  0  0
    4.1275   -5.6873    0.3358 H   0  0  0  0  0  0  0  0  0  0  0  0
    4.9357   -5.9125    3.3014 H   0  0  0  0  0  0  0  0  0  0  0  0
    3.7846   -6.9874    2.4532 H   0  0  0  0  0  0  0  0  0  0  0  0
    1.4698   -2.5919    2.0521 H   0  0  0  0  0  0  0  0  0  0  0  0
    6.3944   -7.4144    2.6504 H   0  0  0  0  0  0  0  0  0  0  0  0
    6.3359   -6.6807    1.1637 H   0  0  0  0  0  0  0  0  0  0  0  0
    5.4344   -8.0434    1.4525 H   0  0  0  0  0  0  0  0  0  0  0  0
  1  2  1  0  0  0  0
  1  3  2  0  0  0  0
  2  4  2  0  0  0  0
  3  8  1  0  0  0  0
  4  9  1  0  0  0  0
  5  6  2  0  0  0  0
  5 10  1  0  0  0  0
  6 11  1  0  0  0  0
  7 10  2  0  0  0  0
  7 12  1  0  0  0  0
  7 13  1  0  0  0  0
  8  9  2  0  0  0  0
  8 16  1  0  0  0  0
  9 18  1  0  0  0  0
 10 21  1  0  0  0  0
 11 12  2  0  0  0  0
 11 35  1  0  0  0  0
 12 34  1  0  0  0  0
 13 29  1  0  0  0  0
 13 31  2  0  0  0  0
 14 22  1  0  0  0  0
 14 27  1  0  0  0  0
 14 32  2  0  0  0  0
 15 23  1  0  0  0  0
 15 30  1  0  0  0  0
 15 33  2  0  0  0  0
 16 19  1  0  0  0  0
 17 20  1  0  0  0  0
 17 34  1  0  0  0  0
 18 19  1  0  0  0  0
 18 21  1  0  0  0  0
 19 27  1  0  0  0  0
 20 24  1  0  0  0  0
 20 35  1  0  0  0  0
 22 25  1  0  0  0  0
 23 24  1  0  0  0  0
 25 26  1  0  0  0  0
 26 28  1  0  0  0  0
  1 36  1  0  0  0  0
  2 37  1  0  0  0  0
  3 38  1  0  0  0  0
  4 39  1  0  0  0  0
  5 40  1  0  0  0  0
  6 41  1  0  0  0  0
 16 42  1  0  0  0  0
 16 43  1  0  0  0  0
 17 44  1  0  0  0  0
 17 45  1  0  0  0  0
 18 46  1  0  0  0  0
 19 47  1  0  0  0  0
 20 48  1  0  0  0  0
 21 49  1  0  0  0  0
 21 50  1  0  0  0  0
 22 51  1  0  0  0  0
 22 52  1  0  0  0  0
 23 53  1  0  0  0  0
 23 54  1  0  0  0  0
 24 55  1  0  0  0  0
 24 56  1  0  0  0  0
 25 57  1  0  0  0  0
 25 58  1  0  0  0  0
 26 59  1  0  0  0  0
 26 60  1  0  0  0  0
 27 61  1  0  0  0  0
 28 62  1  0  0  0  0
 28 63  1  0  0  0  0
 28 64  1  0  0  0  0
M  CHG  3  28   1  29  -1  30  -1
M  END
$$$$
