AVX38783_0
  -OEChem-04011315003D

 68 71  0     1  0  0  0  0  0999 V2000
    7.2955   -2.8050    4.5084 C   0  0  0  0  0  0  0  0  0  0  0  0
    7.2224   -1.5474    3.9095 C   0  0  0  0  0  0  0  0  0  0  0  0
    0.1593   -4.0412    8.8239 C   0  0  0  0  0  0  0  0  0  0  0  0
    6.1579   -3.6087    4.5839 C   0  0  0  0  0  0  0  0  0  0  0  0
    6.0117   -1.0934    3.3862 C   0  0  0  0  0  0  0  0  0  0  0  0
    0.0258   -1.3822    2.6701 C   0  0  0  0  0  0  0  0  0  0  0  0
   -1.0673   -1.9218    3.3485 C   0  0  0  0  0  0  0  0  0  0  0  0
    0.8123   -4.9675    7.9761 C   0  0  0  0  0  0  0  0  0  0  0  0
    0.1105   -2.8555    8.1285 C   0  0  0  0  0  0  0  0  0  0  0  0
    4.9472   -3.1547    4.0607 C   0  0  0  0  0  0  0  0  0  0  0  0
    0.3543   -3.4815    1.5163 C   0  0  0  0  0  0  0  0  0  0  0  0
    4.8741   -1.8971    3.4618 C   0  0  0  0  0  0  0  0  0  0  0  0
    0.7389   -2.1626    1.7595 C   0  0  0  0  0  0  0  0  0  0  0  0
   -1.4438   -3.2449    3.1161 C   0  0  0  0  0  0  0  0  0  0  0  0
   -0.7471   -4.0174    2.1842 C   0  0  0  0  0  0  0  0  0  0  0  0
    1.1157   -4.2818    6.8229 C   0  0  0  0  0  0  0  0  0  0  0  0
    4.4994   -0.0115   -1.0708 C   0  0  0  0  0  0  0  0  0  0  0  0
    4.5840   -0.4702    0.1827 C   0  0  0  0  0  0  0  0  0  0  0  0
    3.7746   -4.0139    4.1536 C   0  0  0  0  0  0  0  0  0  0  0  0
    1.1062   -4.3016    0.5445 C   0  0  0  0  0  0  0  0  0  0  0  0
   -5.4384   -5.5535    6.4605 C   0  0  0  0  0  0  0  0  0  0  0  0
   -2.4039   -5.6354    2.3489 C   0  0  0  0  0  0  0  0  0  0  0  0
   -2.5926   -5.1556    3.7820 C   0  0  2  0  0  0  0  0  0  0  0  0
    3.5849   -1.3837    2.8914 C   0  0  0  0  0  0  0  0  0  0  0  0
    1.9102   -1.5568    1.0567 C   0  0  0  0  0  0  0  0  0  0  0  0
    1.7987   -4.6740    5.5447 C   0  0  0  0  0  0  0  0  0  0  0  0
    4.3294   -1.8898    0.5695 C   0  0  0  0  0  0  0  0  0  0  0  0
   -4.1191   -5.1662    5.7820 C   0  0  0  0  0  0  0  0  0  0  0  0
   -3.9544   -5.5606    4.3269 C   0  0  0  0  0  0  0  0  0  0  0  0
    2.9794   -3.8784    5.2962 N   0  0  0  0  0  0  0  0  0  0  0  0
    3.2198   -2.0313    1.5800 N   0  3  1  0  0  0  0  0  0  0  0  0
    0.7345   -4.2910   -0.6858 O   0  5  0  0  0  0  0  0  0  0  0  0
   -5.5678   -5.2204    7.6703 O   0  5  0  0  0  0  0  0  0  0  0  0
    3.5247   -4.8363    3.2562 O   0  0  0  0  0  0  0  0  0  0  0  0
    2.1030   -4.9945    0.9666 O   0  0  0  0  0  0  0  0  0  0  0  0
   -6.2522   -6.1582    5.7041 O   0  0  0  0  0  0  0  0  0  0  0  0
    0.6912   -2.9937    6.9078 O   0  0  0  0  0  0  0  0  0  0  0  0
   -1.0886   -5.3106    1.8880 O   0  0  0  0  0  0  0  0  0  0  0  0
   -2.5121   -3.7242    3.8275 O   0  0  0  0  0  0  0  0  0  0  0  0
    8.2382   -3.1591    4.9159 H   0  0  0  0  0  0  0  0  0  0  0  0
    8.1085   -0.9219    3.8511 H   0  0  0  0  0  0  0  0  0  0  0  0
   -0.2270   -4.2158    9.8176 H   0  0  0  0  0  0  0  0  0  0  0  0
    6.2277   -4.5863    5.0541 H   0  0  0  0  0  0  0  0  0  0  0  0
    5.9657   -0.1122    2.9212 H   0  0  0  0  0  0  0  0  0  0  0  0
    0.3171   -0.3529    2.8620 H   0  0  0  0  0  0  0  0  0  0  0  0
   -1.6099   -1.3103    4.0642 H   0  0  0  0  0  0  0  0  0  0  0  0
    1.0331   -6.0050    8.1830 H   0  0  0  0  0  0  0  0  0  0  0  0
   -0.2825   -1.8743    8.3510 H   0  0  0  0  0  0  0  0  0  0  0  0
    4.7011    1.0315   -1.2891 H   0  0  0  0  0  0  0  0  0  0  0  0
    4.2309   -0.6616   -1.8960 H   0  0  0  0  0  0  0  0  0  0  0  0
    4.8623    0.2223    0.9729 H   0  0  0  0  0  0  0  0  0  0  0  0
   -2.5132   -6.7233    2.2867 H   0  0  0  0  0  0  0  0  0  0  0  0
   -3.1327   -5.1809    1.6655 H   0  0  0  0  0  0  0  0  0  0  0  0
   -1.8062   -5.5602    4.4337 H   0  0  0  0  0  0  0  0  0  0  0  0
    2.7491   -1.5655    3.5755 H   0  0  0  0  0  0  0  0  0  0  0  0
    3.6360   -0.3053    2.7063 H   0  0  0  0  0  0  0  0  0  0  0  0
    1.9013   -1.7917   -0.0153 H   0  0  0  0  0  0  0  0  0  0  0  0
    1.9152   -0.4636    1.1537 H   0  0  0  0  0  0  0  0  0  0  0  0
    2.1015   -5.7263    5.5759 H   0  0  0  0  0  0  0  0  0  0  0  0
    1.1277   -4.5539    4.6877 H   0  0  0  0  0  0  0  0  0  0  0  0
    5.2229   -2.3216    1.0307 H   0  0  0  0  0  0  0  0  0  0  0  0
    4.0443   -2.5103   -0.2860 H   0  0  0  0  0  0  0  0  0  0  0  0
   -3.3251   -5.6629    6.3538 H   0  0  0  0  0  0  0  0  0  0  0  0
   -3.9708   -4.0854    5.8990 H   0  0  0  0  0  0  0  0  0  0  0  0
   -4.7205   -5.1129    3.6961 H   0  0  0  0  0  0  0  0  0  0  0  0
   -4.0304   -6.6430    4.2277 H   0  0  0  0  0  0  0  0  0  0  0  0
    3.2649   -3.2353    6.0274 H   0  0  0  0  0  0  0  0  0  0  0  0
    3.1315   -3.0426    1.7721 H   0  0  0  0  0  0  0  0  0  0  0  0
  1  2  1  0  0  0  0
  1  4  2  0  0  0  0
  2  5  2  0  0  0  0
  3  8  1  0  0  0  0
  3  9  2  0  0  0  0
  4 10  1  0  0  0  0
  5 12  1  0  0  0  0
  6  7  2  0  0  0  0
  6 13  1  0  0  0  0
  7 14  1  0  0  0  0
  8 16  2  0  0  0  0
  9 37  1  0  0  0  0
 10 12  2  0  0  0  0
 10 19  1  0  0  0  0
 11 13  2  0  0  0  0
 11 15  1  0  0  0  0
 11 20  1  0  0  0  0
 12 24  1  0  0  0  0
 13 25  1  0  0  0  0
 14 15  2  0  0  0  0
 14 39  1  0  0  0  0
 15 38  1  0  0  0  0
 16 26  1  0  0  0  0
 16 37  1  0  0  0  0
 17 18  2  0  0  0  0
 18 27  1  0  0  0  0
 19 30  1  0  0  0  0
 19 34  2  0  0  0  0
 20 32  1  0  0  0  0
 20 35  2  0  0  0  0
 21 28  1  0  0  0  0
 21 33  1  0  0  0  0
 21 36  2  0  0  0  0
 22 23  1  0  0  0  0
 22 38  1  0  0  0  0
 23 29  1  0  0  0  0
 23 39  1  0  0  0  0
 24 31  1  0  0  0  0
 25 31  1  0  0  0  0
 26 30  1  0  0  0  0
 27 31  1  0  0  0  0
 28 29  1  0  0  0  0
  1 40  1  0  0  0  0
  2 41  1  0  0  0  0
  3 42  1  0  0  0  0
  4 43  1  0  0  0  0
  5 44  1  0  0  0  0
  6 45  1  0  0  0  0
  7 46  1  0  0  0  0
  8 47  1  0  0  0  0
  9 48  1  0  0  0  0
 17 49  1  0  0  0  0
 17 50  1  0  0  0  0
 18 51  1  0  0  0  0
 22 52  1  0  0  0  0
 22 53  1  0  0  0  0
 23 54  1  0  0  0  0
 24 55  1  0  0  0  0
 24 56  1  0  0  0  0
 25 57  1  0  0  0  0
 25 58  1  0  0  0  0
 26 59  1  0  0  0  0
 26 60  1  0  0  0  0
 27 61  1  0  0  0  0
 27 62  1  0  0  0  0
 28 63  1  0  0  0  0
 28 64  1  0  0  0  0
 29 65  1  0  0  0  0
 29 66  1  0  0  0  0
 30 67  1  0  0  0  0
 31 68  1  0  0  0  0
M  CHG  3  31   1  32  -1  33  -1
M  END
$$$$
