@<TRIPOS>MOLECULE
AVX38785_3
   67    70     0     0     0
SMALL
NO_CHARGES

@<TRIPOS>ATOM
      1 C1          3.8793    1.5140   -4.8281 C.ar      1 MOL         0.0000
      2 C2          0.1972   -6.1676   -2.6620 C.ar      1 MOL         0.0000
      3 C3          2.6363    1.3388   -5.4363 C.ar      1 MOL         0.0000
      4 C4          4.7362    0.4253   -4.6662 C.ar      1 MOL         0.0000
      5 C5         -0.9536   -5.7030   -2.0253 C.ar      1 MOL         0.0000
      6 C6          0.7277   -5.4647   -3.7438 C.ar      1 MOL         0.0000
      7 C7          2.2502    0.0749   -5.8825 C.ar      1 MOL         0.0000
      8 C8          4.3501   -0.8386   -5.1124 C.ar      1 MOL         0.0000
      9 C9         -1.5741   -4.5358   -2.4704 C.ar      1 MOL         0.0000
     10 C10        -1.1157    1.4127   -1.5349 C.ar      1 MOL         0.0000
     11 C11        -0.4203    2.5447   -1.1094 C.ar      1 MOL         0.0000
     12 C12         0.1073   -4.2975   -4.1890 C.ar      1 MOL         0.0000
     13 C13         0.9358    0.1334   -1.5060 C.ar      1 MOL         0.0000
     14 C14         3.1070   -1.0138   -5.7205 C.ar      1 MOL         0.0000
     15 C15        -1.0436   -3.8330   -3.5523 C.ar      1 MOL         0.0000
     16 C16        -0.4396    0.2074   -1.7278 C.ar      1 MOL         0.0000
     17 C17         0.9526    2.4676   -0.8739 C.ar      1 MOL         0.0000
     18 C18         1.6341    1.2684   -1.0930 C.ar      1 MOL         0.0000
     19 C19         0.6818   -3.5835   -5.3212 C.2       1 MOL         0.0000
     20 C20         1.6495   -1.1421   -1.7202 C.2       1 MOL         0.0000
     21 C21         2.5161    5.2033    2.5787 C.2       1 MOL         0.0000
     22 C22         3.6399    2.4084   -0.8299 C.3       1 MOL         0.0000
     23 C23         2.8756    3.3358    0.1057 C.3       1 MOL         0.0000
     24 C24        -1.3292   -0.1769   -4.5299 C.3       1 MOL         0.0000
     25 C25         2.6919   -2.3746   -6.2004 C.3       1 MOL         0.0000
     26 C26        -1.7316   -2.5809   -4.0106 C.3       1 MOL         0.0000
     27 C27        -1.2157   -0.9880   -2.1764 C.3       1 MOL         0.0000
     28 C28         2.7980    5.6312    1.1337 C.3       1 MOL         0.0000
     29 C29         3.5938    4.6665    0.2755 C.3       1 MOL         0.0000
     30 N1          1.9932   -3.1189   -5.1774 N.am      1 MOL         0.0000
     31 N2         -1.0008   -1.3248   -3.6097 N.4       1 MOL         0.0000
     32 O1          1.7578   -1.9588   -0.7336 O.co2     1 MOL         0.0000
     33 O2          1.4483    5.6334    3.0947 O.co2     1 MOL         0.0000
     34 O3          0.0107   -3.3902   -6.3491 O.2       1 MOL         0.0000
     35 O4          2.1352   -1.3863   -2.8849 O.co2     1 MOL         0.0000
     36 O5          3.3998    4.4479    3.0773 O.co2     1 MOL         0.0000
     37 O6          2.9856    1.1381   -0.9109 O.3       1 MOL         0.0000
     38 O7          1.5762    3.6067   -0.4373 O.3       1 MOL         0.0000
     39 H1          4.1804    2.4985   -4.4820 H         1 MOL         0.0000
     40 H2          0.6809   -7.0764   -2.3155 H         1 MOL         0.0000
     41 H3          1.9694    2.1865   -5.5635 H         1 MOL         0.0000
     42 H4          5.7045    0.5616   -4.1937 H         1 MOL         0.0000
     43 H5         -1.3664   -6.2509   -1.1831 H         1 MOL         0.0000
     44 H6          1.6244   -5.8377   -4.2321 H         1 MOL         0.0000
     45 H7          1.2797   -0.0523   -6.3550 H         1 MOL         0.0000
     46 H8          5.0242   -1.6810   -4.9819 H         1 MOL         0.0000
     47 H9         -2.4700   -4.1822   -1.9670 H         1 MOL         0.0000
     48 H10        -2.1865    1.4790   -1.7093 H         1 MOL         0.0000
     49 H11        -0.9565    3.4765   -0.9519 H         1 MOL         0.0000
     50 H12         3.7181    2.8228   -1.8431 H         1 MOL         0.0000
     51 H13         4.6540    2.2311   -0.4560 H         1 MOL         0.0000
     52 H14         2.7412    2.8682    1.0906 H         1 MOL         0.0000
     53 H15        -2.3902    0.0512   -4.4137 H         1 MOL         0.0000
     54 H16        -0.7103    0.6735   -4.2374 H         1 MOL         0.0000
     55 H17        -1.1052   -0.4925   -5.5508 H         1 MOL         0.0000
     56 H18         2.0298   -2.2922   -7.0692 H         1 MOL         0.0000
     57 H19         3.5614   -2.9646   -6.5088 H         1 MOL         0.0000
     58 H20        -1.8237   -2.5565   -5.1017 H         1 MOL         0.0000
     59 H21        -2.7397   -2.5065   -3.5888 H         1 MOL         0.0000
     60 H22        -0.9423   -1.8832   -1.6033 H         1 MOL         0.0000
     61 H23        -2.2955   -0.8355   -2.0523 H         1 MOL         0.0000
     62 H24         3.3669    6.5672    1.1983 H         1 MOL         0.0000
     63 H25         1.8433    5.8687    0.6477 H         1 MOL         0.0000
     64 H26         4.5799    4.4708    0.6934 H         1 MOL         0.0000
     65 H27         3.7307    5.0867   -0.7206 H         1 MOL         0.0000
     66 H28         2.4729   -3.2496   -4.2928 H         1 MOL         0.0000
     67 H29         0.0056   -1.5198   -3.7389 H         1 MOL         0.0000
@<TRIPOS>BOND
     1    1    3 ar
     2    1    4 ar
     3    2    5 ar
     4    2    6 ar
     5    3    7 ar
     6    4    8 ar
     7    5    9 ar
     8    6   12 ar
     9    7   14 ar
    10    8   14 ar
    11    9   15 ar
    12   10   11 ar
    13   10   16 ar
    14   11   17 ar
    15   12   15 ar
    16   12   19 1
    17   13   16 ar
    18   13   18 ar
    19   13   20 1
    20   14   25 1
    21   15   26 1
    22   16   27 1
    23   17   18 ar
    24   17   38 1
    25   18   37 1
    26   19   30 am
    27   19   34 2
    28   20   32 1
    29   20   35 2
    30   21   28 1
    31   21   33 1
    32   21   36 2
    33   22   23 1
    34   22   37 1
    35   23   29 1
    36   23   38 1
    37   24   31 1
    38   25   30 1
    39   26   31 1
    40   27   31 1
    41   28   29 1
    42    1   39 1
    43    2   40 1
    44    3   41 1
    45    4   42 1
    46    5   43 1
    47    6   44 1
    48    7   45 1
    49    8   46 1
    50    9   47 1
    51   10   48 1
    52   11   49 1
    53   22   50 1
    54   22   51 1
    55   23   52 1
    56   24   53 1
    57   24   54 1
    58   24   55 1
    59   25   56 1
    60   25   57 1
    61   26   58 1
    62   26   59 1
    63   27   60 1
    64   27   61 1
    65   28   62 1
    66   28   63 1
    67   29   64 1
    68   29   65 1
    69   30   66 1
    70   31   67 1
