@<TRIPOS>MOLECULE
AVX38749_5
   64    67     0     0     0
SMALL
NO_CHARGES

@<TRIPOS>ATOM
      1 C1          1.8121    1.8090   -1.1916 C.ar      1 MOL         0.0000
      2 C2          1.2445    1.0062   -2.1923 C.ar      1 MOL         0.0000
      3 C3          1.4139    1.6723    0.1391 C.ar      1 MOL         0.0000
      4 C4          0.2716    0.0548   -1.8762 C.ar      1 MOL         0.0000
      5 C5         -3.5150   -2.9216    0.0712 C.ar      1 MOL         0.0000
      6 C6         -4.4917   -3.7126    0.6766 C.ar      1 MOL         0.0000
      7 C7         -1.7992   -4.4446    0.8346 C.ar      1 MOL         0.0000
      8 C8          0.4574    0.7177    0.4451 C.ar      1 MOL         0.0000
      9 C9         -0.1106   -0.0875   -0.5510 C.ar      1 MOL         0.0000
     10 C10        -2.1712   -3.2900    0.1456 C.ar      1 MOL         0.0000
     11 C11        -4.1216   -4.8749    1.3537 C.ar      1 MOL         0.0000
     12 C12        -2.7742   -5.2291    1.4513 C.ar      1 MOL         0.0000
     13 C13        -0.3746   -4.8262    0.9188 C.2       1 MOL         0.0000
     14 C14        -1.7644   -1.7987    3.6520 C.2       1 MOL         0.0000
     15 C15        -7.2271   -8.3611    1.1266 C.2       1 MOL         0.0000
     16 C16        -0.1388    0.4223    1.7852 C.3       1 MOL         0.0000
     17 C17        -3.3586   -6.8638    2.9935 C.3       1 MOL         0.0000
     18 C18        -1.1518   -1.0021    0.0354 C.3       1 MOL         0.0000
     19 C19        -0.7658   -0.9617    1.5347 C.3       1 MOL         0.0000
     20 C20        -4.6898   -6.9415    2.2578 C.3       1 MOL         0.0000
     21 C21        -1.1435   -2.4184   -0.5254 C.3       1 MOL         0.0000
     22 C22        -3.1095   -1.9457    4.3413 C.3       1 MOL         0.0000
     23 C23        -7.1185   -7.5742    2.4380 C.3       1 MOL         0.0000
     24 C24        -5.7674   -7.5727    3.1272 C.3       1 MOL         0.0000
     25 C25        -2.9917   -2.5878    5.7214 C.3       1 MOL         0.0000
     26 C26        -4.3598   -2.7563    6.3645 C.3       1 MOL         0.0000
     27 N1         -1.8889   -1.2126    2.3971 N.am      1 MOL         0.0000
     28 N2         -4.1922   -3.3396    7.7173 N.4       1 MOL         0.0000
     29 O1          0.1132   -5.5858    0.0039 O.co2     1 MOL         0.0000
     30 O2         -8.0603   -7.9335    0.2813 O.co2     1 MOL         0.0000
     31 O3          0.3226   -4.3842    1.9040 O.co2     1 MOL         0.0000
     32 O4         -0.7058   -2.1615    4.1576 O.2       1 MOL         0.0000
     33 O5         -6.4438   -9.3512    1.0499 O.co2     1 MOL         0.0000
     34 O6         -2.3453   -6.3396    2.1293 O.3       1 MOL         0.0000
     35 O7         -5.1274   -5.6211    1.9092 O.3       1 MOL         0.0000
     36 H1          2.5634    2.5477   -1.4572 H         1 MOL         0.0000
     37 H2          1.5604    1.1315   -3.2244 H         1 MOL         0.0000
     38 H3          1.8458    2.3010    0.9103 H         1 MOL         0.0000
     39 H4         -0.1719   -0.5499   -2.6597 H         1 MOL         0.0000
     40 H5         -3.8120   -2.0215   -0.4606 H         1 MOL         0.0000
     41 H6         -5.5367   -3.4238    0.6051 H         1 MOL         0.0000
     42 H7          0.6167    0.3767    2.5755 H         1 MOL         0.0000
     43 H8         -0.8902    1.1782    2.0386 H         1 MOL         0.0000
     44 H9         -3.4195   -6.2243    3.8834 H         1 MOL         0.0000
     45 H10        -3.0337   -7.8599    3.3124 H         1 MOL         0.0000
     46 H11        -2.1407   -0.5507   -0.1204 H         1 MOL         0.0000
     47 H12        -0.0191   -1.7378    1.7550 H         1 MOL         0.0000
     48 H13        -4.5869   -7.5210    1.3302 H         1 MOL         0.0000
     49 H14        -0.1470   -2.8572   -0.4016 H         1 MOL         0.0000
     50 H15        -1.3308   -2.3878   -1.6049 H         1 MOL         0.0000
     51 H16        -3.7581   -2.5544    3.6999 H         1 MOL         0.0000
     52 H17        -3.5600   -0.9497    4.4290 H         1 MOL         0.0000
     53 H18        -7.8433   -8.0272    3.1262 H         1 MOL         0.0000
     54 H19        -7.4498   -6.5443    2.2552 H         1 MOL         0.0000
     55 H20        -5.4461   -8.5787    3.3917 H         1 MOL         0.0000
     56 H21        -5.8229   -6.9877    4.0449 H         1 MOL         0.0000
     57 H22        -2.3510   -1.9691    6.3628 H         1 MOL         0.0000
     58 H23        -2.4971   -3.5636    5.6331 H         1 MOL         0.0000
     59 H24        -4.8728   -1.7987    6.4932 H         1 MOL         0.0000
     60 H25        -4.9970   -3.4428    5.7996 H         1 MOL         0.0000
     61 H26        -2.8193   -0.9807    2.0533 H         1 MOL         0.0000
     62 H27        -4.0837   -2.6040    8.4241 H         1 MOL         0.0000
     63 H28        -3.3617   -3.9407    7.7577 H         1 MOL         0.0000
     64 H29        -5.0061   -3.9081    7.9760 H         1 MOL         0.0000
@<TRIPOS>BOND
     1    1    2 ar
     2    1    3 ar
     3    2    4 ar
     4    3    8 ar
     5    4    9 ar
     6    5    6 ar
     7    5   10 ar
     8    6   11 ar
     9    7   10 ar
    10    7   12 ar
    11    7   13 1
    12    8    9 ar
    13    8   16 1
    14    9   18 1
    15   10   21 1
    16   11   12 ar
    17   11   35 1
    18   12   34 1
    19   13   29 1
    20   13   31 2
    21   14   22 1
    22   14   27 am
    23   14   32 2
    24   15   23 1
    25   15   30 1
    26   15   33 2
    27   16   19 1
    28   17   20 1
    29   17   34 1
    30   18   19 1
    31   18   21 1
    32   19   27 1
    33   20   24 1
    34   20   35 1
    35   22   25 1
    36   23   24 1
    37   25   26 1
    38   26   28 1
    39    1   36 1
    40    2   37 1
    41    3   38 1
    42    4   39 1
    43    5   40 1
    44    6   41 1
    45   16   42 1
    46   16   43 1
    47   17   44 1
    48   17   45 1
    49   18   46 1
    50   19   47 1
    51   20   48 1
    52   21   49 1
    53   21   50 1
    54   22   51 1
    55   22   52 1
    56   23   53 1
    57   23   54 1
    58   24   55 1
    59   24   56 1
    60   25   57 1
    61   25   58 1
    62   26   59 1
    63   26   60 1
    64   27   61 1
    65   28   62 1
    66   28   63 1
    67   28   64 1
