AVX38748_2
  -OEChem-04011314583D

 67 70  0     1  0  0  0  0  0999 V2000
   -2.0130    1.1304   -1.6264 C   0  0  0  0  0  0  0  0  0  0  0  0
   -1.6942    2.0339   -0.6017 C   0  0  0  0  0  0  0  0  0  0  0  0
   -1.3986   -0.1214   -1.6859 C   0  0  0  0  0  0  0  0  0  0  0  0
   -0.7561    1.6986    0.3777 C   0  0  0  0  0  0  0  0  0  0  0  0
    2.4990   -0.4695    3.7996 C   0  0  0  0  0  0  0  0  0  0  0  0
    3.3998   -1.1088    4.6517 C   0  0  0  0  0  0  0  0  0  0  0  0
    4.3020    0.0550    2.2765 C   0  0  0  0  0  0  0  0  0  0  0  0
   -0.4605   -0.4407   -0.7175 C   0  0  0  0  0  0  0  0  0  0  0  0
   -0.1380    0.4594    0.3068 C   0  0  0  0  0  0  0  0  0  0  0  0
    2.9503    0.1164    2.6165 C   0  0  0  0  0  0  0  0  0  0  0  0
    4.7538   -1.1584    4.3191 C   0  0  0  0  0  0  0  0  0  0  0  0
    5.2011   -0.5962    3.1214 C   0  0  0  0  0  0  0  0  0  0  0  0
    4.7744    0.6684    1.0183 C   0  0  0  0  0  0  0  0  0  0  0  0
    2.9481   -3.2379    0.7418 C   0  0  0  0  0  0  0  0  0  0  0  0
    8.4275   -3.1370    8.1996 C   0  0  0  0  0  0  0  0  0  0  0  0
    0.2911   -1.7253   -0.5655 C   0  0  0  0  0  0  0  0  0  0  0  0
    7.2617   -1.6093    3.4640 C   0  0  0  0  0  0  0  0  0  0  0  0
    0.8646   -0.1477    1.2506 C   0  0  1  0  0  0  0  0  0  0  0  0
    1.4297   -1.2961    0.3775 C   0  0  1  0  0  0  0  0  0  0  0  0
    6.9701   -1.4744    4.9527 C   0  0  2  0  0  0  0  0  0  0  0  0
    1.9534    0.8064    1.7243 C   0  0  0  0  0  0  0  0  0  0  0  0
    3.2728   -4.2943    1.7855 C   0  0  0  0  0  0  0  0  0  0  0  0
    7.6007   -2.2495    7.2618 C   0  0  0  0  0  0  0  0  0  0  0  0
    7.8173   -2.4366    5.7724 C   0  0  0  0  0  0  0  0  0  0  0  0
    4.7330   -4.7442    1.7729 C   0  0  0  0  0  0  0  0  0  0  0  0
    5.0425   -5.7526    2.8833 C   0  0  0  0  0  0  0  0  0  0  0  0
    6.4957   -6.2007    2.8214 C   0  0  0  0  0  0  0  0  0  0  0  0
    1.9216   -2.3975    1.1602 N   0  0  0  0  0  0  0  0  0  0  0  0
    6.7628   -7.1386    3.9383 N   0  3  0  0  0  0  0  0  0  0  0  0
    4.7905   -0.0501   -0.0472 O   0  5  0  0  0  0  0  0  0  0  0  0
    8.2402   -2.9760    9.4367 O   0  5  0  0  0  0  0  0  0  0  0  0
    5.1516    1.8969    1.0376 O   0  0  0  0  0  0  0  0  0  0  0  0
    3.5459   -3.1416   -0.3265 O   0  0  0  0  0  0  0  0  0  0  0  0
    9.1987   -3.9435    7.6040 O   0  0  0  0  0  0  0  0  0  0  0  0
    6.5112   -0.6416    2.7235 O   0  0  0  0  0  0  0  0  0  0  0  0
    5.5921   -1.7817    5.2054 O   0  0  0  0  0  0  0  0  0  0  0  0
   -2.7498    1.4064   -2.3760 H   0  0  0  0  0  0  0  0  0  0  0  0
   -2.1879    3.0013   -0.5663 H   0  0  0  0  0  0  0  0  0  0  0  0
   -1.6542   -0.8234   -2.4723 H   0  0  0  0  0  0  0  0  0  0  0  0
   -0.5282    2.3982    1.1746 H   0  0  0  0  0  0  0  0  0  0  0  0
    1.4469   -0.4289    4.0694 H   0  0  0  0  0  0  0  0  0  0  0  0
    3.0412   -1.5525    5.5765 H   0  0  0  0  0  0  0  0  0  0  0  0
   -0.3540   -2.4884   -0.1161 H   0  0  0  0  0  0  0  0  0  0  0  0
    0.6841   -2.0923   -1.5187 H   0  0  0  0  0  0  0  0  0  0  0  0
    8.3221   -1.4280    3.2586 H   0  0  0  0  0  0  0  0  0  0  0  0
    7.0081   -2.6080    3.0857 H   0  0  0  0  0  0  0  0  0  0  0  0
    0.3271   -0.5529    2.1183 H   0  0  0  0  0  0  0  0  0  0  0  0
    2.2751   -0.9348   -0.2249 H   0  0  0  0  0  0  0  0  0  0  0  0
    7.1563   -0.4467    5.2933 H   0  0  0  0  0  0  0  0  0  0  0  0
    1.4981    1.6483    2.2583 H   0  0  0  0  0  0  0  0  0  0  0  0
    2.4673    1.2377    0.8577 H   0  0  0  0  0  0  0  0  0  0  0  0
    2.6092   -5.1562    1.6484 H   0  0  0  0  0  0  0  0  0  0  0  0
    3.0459   -3.8555    2.7650 H   0  0  0  0  0  0  0  0  0  0  0  0
    7.8659   -1.2140    7.5096 H   0  0  0  0  0  0  0  0  0  0  0  0
    6.5389   -2.3765    7.5075 H   0  0  0  0  0  0  0  0  0  0  0  0
    7.5855   -3.4512    5.4531 H   0  0  0  0  0  0  0  0  0  0  0  0
    8.8594   -2.2379    5.5239 H   0  0  0  0  0  0  0  0  0  0  0  0
    4.9910   -5.1728    0.7970 H   0  0  0  0  0  0  0  0  0  0  0  0
    5.3688   -3.8608    1.9108 H   0  0  0  0  0  0  0  0  0  0  0  0
    4.8370   -5.2960    3.8596 H   0  0  0  0  0  0  0  0  0  0  0  0
    4.3846   -6.6251    2.7946 H   0  0  0  0  0  0  0  0  0  0  0  0
    7.1888   -5.3624    2.9384 H   0  0  0  0  0  0  0  0  0  0  0  0
    6.7197   -6.7380    1.8952 H   0  0  0  0  0  0  0  0  0  0  0  0
    1.4826   -2.5734    2.0627 H   0  0  0  0  0  0  0  0  0  0  0  0
    7.7275   -7.0448    4.2745 H   0  0  0  0  0  0  0  0  0  0  0  0
    6.6253   -8.1112    3.6418 H   0  0  0  0  0  0  0  0  0  0  0  0
    6.1342   -6.9578    4.7287 H   0  0  0  0  0  0  0  0  0  0  0  0
  1  2  1  0  0  0  0
  1  3  2  0  0  0  0
  2  4  2  0  0  0  0
  3  8  1  0  0  0  0
  4  9  1  0  0  0  0
  5  6  2  0  0  0  0
  5 10  1  0  0  0  0
  6 11  1  0  0  0  0
  7 10  2  0  0  0  0
  7 12  1  0  0  0  0
  7 13  1  0  0  0  0
  8  9  2  0  0  0  0
  8 16  1  0  0  0  0
  9 18  1  0  0  0  0
 10 21  1  0  0  0  0
 11 12  2  0  0  0  0
 11 36  1  0  0  0  0
 12 35  1  0  0  0  0
 13 30  1  0  0  0  0
 13 32  2  0  0  0  0
 14 22  1  0  0  0  0
 14 28  1  0  0  0  0
 14 33  2  0  0  0  0
 15 23  1  0  0  0  0
 15 31  1  0  0  0  0
 15 34  2  0  0  0  0
 16 19  1  0  0  0  0
 17 20  1  0  0  0  0
 17 35  1  0  0  0  0
 18 19  1  0  0  0  0
 18 21  1  0  0  0  0
 19 28  1  0  0  0  0
 20 24  1  0  0  0  0
 20 36  1  0  0  0  0
 22 25  1  0  0  0  0
 23 24  1  0  0  0  0
 25 26  1  0  0  0  0
 26 27  1  0  0  0  0
 27 29  1  0  0  0  0
  1 37  1  0  0  0  0
  2 38  1  0  0  0  0
  3 39  1  0  0  0  0
  4 40  1  0  0  0  0
  5 41  1  0  0  0  0
  6 42  1  0  0  0  0
 16 43  1  0  0  0  0
 16 44  1  0  0  0  0
 17 45  1  0  0  0  0
 17 46  1  0  0  0  0
 18 47  1  0  0  0  0
 19 48  1  0  0  0  0
 20 49  1  0  0  0  0
 21 50  1  0  0  0  0
 21 51  1  0  0  0  0
 22 52  1  0  0  0  0
 22 53  1  0  0  0  0
 23 54  1  0  0  0  0
 23 55  1  0  0  0  0
 24 56  1  0  0  0  0
 24 57  1  0  0  0  0
 25 58  1  0  0  0  0
 25 59  1  0  0  0  0
 26 60  1  0  0  0  0
 26 61  1  0  0  0  0
 27 62  1  0  0  0  0
 27 63  1  0  0  0  0
 28 64  1  0  0  0  0
 29 65  1  0  0  0  0
 29 66  1  0  0  0  0
 29 67  1  0  0  0  0
M  CHG  3  29   1  30  -1  31  -1
M  END
$$$$
