@<TRIPOS>MOLECULE
AVX38752_0
   57    60     0     0     0
SMALL
NO_CHARGES

@<TRIPOS>ATOM
      1 C1         -1.7545    2.7337    3.3399 C.ar      1 MOL         0.0000
      2 C2          5.7370   -2.0118    1.3617 C.ar      1 MOL         0.0000
      3 C3         -0.7878    3.1275    4.2651 C.ar      1 MOL         0.0000
      4 C4         -1.7853    1.4168    2.8811 C.ar      1 MOL         0.0000
      5 C5          6.1714   -0.8225    0.7766 C.ar      1 MOL         0.0000
      6 C6          4.5180   -2.0516    2.0386 C.ar      1 MOL         0.0000
      7 C7          0.1483    2.2045    4.7313 C.ar      1 MOL         0.0000
      8 C8         -0.8492    0.4937    3.3473 C.ar      1 MOL         0.0000
      9 C9          5.3868    0.3272    0.8685 C.ar      1 MOL         0.0000
     10 C10         3.2250    4.9666    0.6749 C.ar      1 MOL         0.0000
     11 C11         2.9577    4.2473    2.9855 C.ar      1 MOL         0.0000
     12 C12         3.7334   -0.9020    2.1304 C.ar      1 MOL         0.0000
     13 C13         2.5447    6.1574    0.9411 C.ar      1 MOL         0.0000
     14 C14         0.1176    0.8876    4.2725 C.ar      1 MOL         0.0000
     15 C15         3.4302    4.0170    1.6912 C.ar      1 MOL         0.0000
     16 C16         4.1678    0.2874    1.5454 C.ar      1 MOL         0.0000
     17 C17         2.2892    5.4309    3.2220 C.ar      1 MOL         0.0000
     18 C18         2.0883    6.3604    2.2272 C.ar      1 MOL         0.0000
     19 C19         2.0792    0.1749   -1.3972 C.2       1 MOL         0.0000
     20 C20         2.4455    1.2437   -0.6813 C.2       1 MOL         0.0000
     21 C21         2.4650   -0.9743    2.8439 C.2       1 MOL         0.0000
     22 C22         2.3291    7.1520   -0.1192 C.2       1 MOL         0.0000
     23 C23         1.2058    7.1080    4.0559 C.3       1 MOL         0.0000
     24 C24         1.1250   -0.1064    4.7737 C.3       1 MOL         0.0000
     25 C25         4.1595    2.7518    1.3837 C.3       1 MOL         0.0000
     26 C26         2.1217    1.4289    0.7646 C.3       1 MOL         0.0000
     27 N1          2.3131   -0.1339    3.9513 N.am      1 MOL         0.0000
     28 N2          3.3479    1.5283    1.6296 N.4       1 MOL         0.0000
     29 O1          2.7788    6.9073   -1.3022 O.co2     1 MOL         0.0000
     30 O2          1.5827   -1.7690    2.4783 O.2       1 MOL         0.0000
     31 O3          1.6974    8.2386    0.1663 O.co2     1 MOL         0.0000
     32 O4          1.7619    5.8260    4.4127 O.3       1 MOL         0.0000
     33 O5          1.4099    7.4536    2.6705 O.3       1 MOL         0.0000
     34 H1         -2.4842    3.4522    2.9780 H         1 MOL         0.0000
     35 H2          6.3479   -2.9069    1.2900 H         1 MOL         0.0000
     36 H3         -0.7644    4.1526    4.6233 H         1 MOL         0.0000
     37 H4         -2.5385    1.1095    2.1616 H         1 MOL         0.0000
     38 H5          7.1205   -0.7917    0.2496 H         1 MOL         0.0000
     39 H6          4.1907   -2.9848    2.4902 H         1 MOL         0.0000
     40 H7          0.8980    2.5203    5.4520 H         1 MOL         0.0000
     41 H8         -0.8806   -0.5301    2.9841 H         1 MOL         0.0000
     42 H9          5.7354    1.2484    0.4087 H         1 MOL         0.0000
     43 H10         3.6004    4.7700   -0.3274 H         1 MOL         0.0000
     44 H11         3.1096    3.5230    3.7785 H         1 MOL         0.0000
     45 H12         2.3492    0.0963   -2.4446 H         1 MOL         0.0000
     46 H13         1.5091   -0.6351   -0.9562 H         1 MOL         0.0000
     47 H14         3.0209    2.0256   -1.1701 H         1 MOL         0.0000
     48 H15         0.1287    7.0926    4.2587 H         1 MOL         0.0000
     49 H16         1.6711    7.8786    4.6812 H         1 MOL         0.0000
     50 H17         1.4294    0.1354    5.7979 H         1 MOL         0.0000
     51 H18         0.7052   -1.1176    4.7894 H         1 MOL         0.0000
     52 H19         4.4696    2.7100    0.3310 H         1 MOL         0.0000
     53 H20         5.0656    2.6494    1.9958 H         1 MOL         0.0000
     54 H21         1.5510    0.5724    1.1364 H         1 MOL         0.0000
     55 H22         1.5432    2.3397    0.9490 H         1 MOL         0.0000
     56 H23         3.0901    0.4499    4.2431 H         1 MOL         0.0000
     57 H24         3.0095    1.5767    2.6043 H         1 MOL         0.0000
@<TRIPOS>BOND
     1    1    3 ar
     2    1    4 ar
     3    2    5 ar
     4    2    6 ar
     5    3    7 ar
     6    4    8 ar
     7    5    9 ar
     8    6   12 ar
     9    7   14 ar
    10    8   14 ar
    11    9   16 ar
    12   10   13 ar
    13   10   15 ar
    14   11   15 ar
    15   11   17 ar
    16   12   16 ar
    17   12   21 1
    18   13   18 ar
    19   13   22 1
    20   14   24 1
    21   15   25 1
    22   16   28 1
    23   17   18 ar
    24   17   32 1
    25   18   33 1
    26   19   20 2
    27   20   26 1
    28   21   27 am
    29   21   30 2
    30   22   29 1
    31   22   31 2
    32   23   32 1
    33   23   33 1
    34   24   27 1
    35   25   28 1
    36   26   28 1
    37    1   34 1
    38    2   35 1
    39    3   36 1
    40    4   37 1
    41    5   38 1
    42    6   39 1
    43    7   40 1
    44    8   41 1
    45    9   42 1
    46   10   43 1
    47   11   44 1
    48   19   45 1
    49   19   46 1
    50   20   47 1
    51   23   48 1
    52   23   49 1
    53   24   50 1
    54   24   51 1
    55   25   52 1
    56   25   53 1
    57   26   54 1
    58   26   55 1
    59   27   56 1
    60   28   57 1
