AVX38670_1
  -OEChem-04011314563D

 63 66  0     1  0  0  0  0  0999 V2000
    3.8681    1.3155    2.0065 C   0  0  0  0  0  0  0  0  0  0  0  0
    2.5716    1.1736    2.5010 C   0  0  0  0  0  0  0  0  0  0  0  0
    4.1872    0.8327    0.7373 C   0  0  0  0  0  0  0  0  0  0  0  0
    1.5942    0.5488    1.7264 C   0  0  0  0  0  0  0  0  0  0  0  0
    3.2098    0.2080   -0.0373 C   0  0  0  0  0  0  0  0  0  0  0  0
   -0.3684   -1.7375   -4.4308 C   0  0  0  0  0  0  0  0  0  0  0  0
   -2.5525   -4.4966   -0.9228 C   0  0  0  0  0  0  0  0  0  0  0  0
   -0.4149   -5.6035   -1.1285 C   0  0  0  0  0  0  0  0  0  0  0  0
   -1.1573   -2.7793   -4.9242 C   0  0  0  0  0  0  0  0  0  0  0  0
   -3.0350   -5.2264   -2.0091 C   0  0  0  0  0  0  0  0  0  0  0  0
   -0.8973   -6.3334   -2.2148 C   0  0  0  0  0  0  0  0  0  0  0  0
    1.2664   -2.0790   -6.2025 C   0  0  0  0  0  0  0  0  0  0  0  0
   -1.2424   -4.6851   -0.4825 C   0  0  0  0  0  0  0  0  0  0  0  0
    1.9133    0.0660    0.4572 C   0  0  0  0  0  0  0  0  0  0  0  0
    0.8365   -1.3893   -5.0663 C   0  0  0  0  0  0  0  0  0  0  0  0
   -0.7103   -3.4444   -6.0474 C   0  0  0  0  0  0  0  0  0  0  0  0
    0.4690   -3.1036   -6.6696 C   0  0  0  0  0  0  0  0  0  0  0  0
   -2.2074   -6.1448   -2.6551 C   0  0  0  0  0  0  0  0  0  0  0  0
    2.5228   -1.7334   -6.8865 C   0  0  0  0  0  0  0  0  0  0  0  0
    0.8107   -2.1139   -0.1327 C   0  0  0  0  0  0  0  0  0  0  0  0
    0.5136    0.6885   -2.4731 C   0  0  0  0  0  0  0  0  0  0  0  0
   -0.4273   -4.7508   -7.7490 C   0  0  0  0  0  0  0  0  0  0  0  0
    0.3045    1.8023   -4.7078 C   0  0  0  0  0  0  0  0  0  0  0  0
   -1.7795   -7.7797   -4.3284 C   0  0  0  0  0  0  0  0  0  0  0  0
   -0.7231   -3.9000    0.6872 C   0  0  0  0  0  0  0  0  0  0  0  0
    1.6495   -0.2622   -4.4982 C   0  0  0  0  0  0  0  0  0  0  0  0
    0.8551   -0.6111   -0.3823 C   0  0  2  0  0  0  0  0  0  0  0  0
   -0.4291   -2.5304    0.3317 N   0  0  0  0  0  0  0  0  0  0  0  0
    1.0674   -0.3942   -1.7956 N   0  0  0  0  0  0  0  0  0  0  0  0
    0.8120    0.7420   -3.8470 N   0  0  0  0  0  0  0  0  0  0  0  0
    2.4943   -0.8568   -7.8297 O   0  5  0  0  0  0  0  0  0  0  0  0
    3.6097   -2.3191   -6.5198 O   0  0  0  0  0  0  0  0  0  0  0  0
    1.7858   -2.8454   -0.2933 O   0  0  0  0  0  0  0  0  0  0  0  0
   -0.1919    1.5267   -1.9035 O   0  0  0  0  0  0  0  0  0  0  0  0
   -1.3417   -4.4783   -6.6674 O   0  0  0  0  0  0  0  0  0  0  0  0
    0.7237   -3.8816   -7.7566 O   0  0  0  0  0  0  0  0  0  0  0  0
   -2.6788   -6.8578   -3.7143 O   0  0  0  0  0  0  0  0  0  0  0  0
    4.6287    1.8032    2.6092 H   0  0  0  0  0  0  0  0  0  0  0  0
    2.3227    1.5504    3.4888 H   0  0  0  0  0  0  0  0  0  0  0  0
    5.1962    0.9440    0.3516 H   0  0  0  0  0  0  0  0  0  0  0  0
    0.5867    0.4425    2.1200 H   0  0  0  0  0  0  0  0  0  0  0  0
    3.4676   -0.1652   -1.0249 H   0  0  0  0  0  0  0  0  0  0  0  0
   -0.6961   -1.1953   -3.5470 H   0  0  0  0  0  0  0  0  0  0  0  0
   -3.2042   -3.7832   -0.4255 H   0  0  0  0  0  0  0  0  0  0  0  0
    0.6074   -5.7568   -0.7923 H   0  0  0  0  0  0  0  0  0  0  0  0
   -2.0870   -3.0510   -4.4373 H   0  0  0  0  0  0  0  0  0  0  0  0
   -4.0567   -5.0753   -2.3473 H   0  0  0  0  0  0  0  0  0  0  0  0
   -0.2479   -7.0474   -2.7135 H   0  0  0  0  0  0  0  0  0  0  0  0
   -0.0831   -5.7880   -7.6645 H   0  0  0  0  0  0  0  0  0  0  0  0
   -0.9620   -4.6334   -8.6986 H   0  0  0  0  0  0  0  0  0  0  0  0
    1.0072    2.6394   -4.7269 H   0  0  0  0  0  0  0  0  0  0  0  0
   -0.6598    2.1607   -4.3376 H   0  0  0  0  0  0  0  0  0  0  0  0
    0.1723    1.4306   -5.7275 H   0  0  0  0  0  0  0  0  0  0  0  0
   -2.2817   -8.2814   -5.1591 H   0  0  0  0  0  0  0  0  0  0  0  0
   -1.4499   -8.5152   -3.5902 H   0  0  0  0  0  0  0  0  0  0  0  0
   -0.9128   -7.2324   -4.7067 H   0  0  0  0  0  0  0  0  0  0  0  0
   -1.4573   -3.8873    1.5002 H   0  0  0  0  0  0  0  0  0  0  0  0
    0.1942   -4.3471    1.0844 H   0  0  0  0  0  0  0  0  0  0  0  0
    2.3643   -0.6369   -3.7574 H   0  0  0  0  0  0  0  0  0  0  0  0
    2.2265    0.2401   -5.2818 H   0  0  0  0  0  0  0  0  0  0  0  0
   -0.1335   -0.1867   -0.1694 H   0  0  0  0  0  0  0  0  0  0  0  0
   -1.1767   -1.8504    0.4335 H   0  0  0  0  0  0  0  0  0  0  0  0
    1.6389   -1.0530   -2.3109 H   0  0  0  0  0  0  0  0  0  0  0  0
  1  2  2  0  0  0  0
  1  3  1  0  0  0  0
  2  4  1  0  0  0  0
  3  5  2  0  0  0  0
  4 14  2  0  0  0  0
  5 14  1  0  0  0  0
  6  9  2  0  0  0  0
  6 15  1  0  0  0  0
  7 10  1  0  0  0  0
  7 13  2  0  0  0  0
  8 11  2  0  0  0  0
  8 13  1  0  0  0  0
  9 16  1  0  0  0  0
 10 18  2  0  0  0  0
 11 18  1  0  0  0  0
 12 15  2  0  0  0  0
 12 17  1  0  0  0  0
 12 19  1  0  0  0  0
 13 25  1  0  0  0  0
 14 27  1  0  0  0  0
 15 26  1  0  0  0  0
 16 17  2  0  0  0  0
 16 35  1  0  0  0  0
 17 36  1  0  0  0  0
 18 37  1  0  0  0  0
 19 31  1  0  0  0  0
 19 32  2  0  0  0  0
 20 27  1  0  0  0  0
 20 28  1  0  0  0  0
 20 33  2  0  0  0  0
 21 29  1  0  0  0  0
 21 30  1  0  0  0  0
 21 34  2  0  0  0  0
 22 35  1  0  0  0  0
 22 36  1  0  0  0  0
 23 30  1  0  0  0  0
 24 37  1  0  0  0  0
 25 28  1  0  0  0  0
 26 30  1  0  0  0  0
 27 29  1  0  0  0  0
  1 38  1  0  0  0  0
  2 39  1  0  0  0  0
  3 40  1  0  0  0  0
  4 41  1  0  0  0  0
  5 42  1  0  0  0  0
  6 43  1  0  0  0  0
  7 44  1  0  0  0  0
  8 45  1  0  0  0  0
  9 46  1  0  0  0  0
 10 47  1  0  0  0  0
 11 48  1  0  0  0  0
 22 49  1  0  0  0  0
 22 50  1  0  0  0  0
 23 51  1  0  0  0  0
 23 52  1  0  0  0  0
 23 53  1  0  0  0  0
 24 54  1  0  0  0  0
 24 55  1  0  0  0  0
 24 56  1  0  0  0  0
 25 57  1  0  0  0  0
 25 58  1  0  0  0  0
 26 59  1  0  0  0  0
 26 60  1  0  0  0  0
 27 61  1  0  0  0  0
 28 62  1  0  0  0  0
 29 63  1  0  0  0  0
M  CHG  1  31  -1
M  END
$$$$
