AVX38787_0
  -OEChem-04011315013D

 73 76  0     1  0  0  0  0  0999 V2000
    6.1394   -2.2484   -7.3909 C   0  0  0  0  0  0  0  0  0  0  0  0
    5.3031   -1.4103   -8.1284 C   0  0  0  0  0  0  0  0  0  0  0  0
    5.5951   -3.1336   -6.4604 C   0  0  0  0  0  0  0  0  0  0  0  0
    3.9225   -1.4573   -7.9352 C   0  0  0  0  0  0  0  0  0  0  0  0
   -1.0214   -3.1177   -4.8973 C   0  0  0  0  0  0  0  0  0  0  0  0
   -1.3502   -3.5009   -3.5969 C   0  0  0  0  0  0  0  0  0  0  0  0
    4.2145   -3.1806   -6.2672 C   0  0  0  0  0  0  0  0  0  0  0  0
   -0.4785   -5.4099   -5.4424 C   0  0  0  0  0  0  0  0  0  0  0  0
    3.3782   -2.3425   -7.0046 C   0  0  0  0  0  0  0  0  0  0  0  0
   -0.5808   -4.0700   -5.8171 C   0  0  0  0  0  0  0  0  0  0  0  0
   -1.2347   -4.8385   -3.2175 C   0  0  0  0  0  0  0  0  0  0  0  0
   -0.8203   -5.7959   -4.1461 C   0  0  0  0  0  0  0  0  0  0  0  0
    3.6726   -4.1136   -5.2886 C   0  0  0  0  0  0  0  0  0  0  0  0
   -0.0206   -6.4165   -6.4219 C   0  0  0  0  0  0  0  0  0  0  0  0
   -1.8956   -6.1621    2.2854 C   0  0  0  0  0  0  0  0  0  0  0  0
    5.7535   -5.8114    0.2404 C   0  0  0  0  0  0  0  0  0  0  0  0
    6.3035   -4.8980   -0.8506 C   0  0  0  0  0  0  0  0  0  0  0  0
    4.7417   -6.8068   -0.3187 C   0  0  0  0  0  0  0  0  0  0  0  0
    5.1838   -4.1909   -1.6108 C   0  0  0  0  0  0  0  0  0  0  0  0
    3.6194   -6.1030   -1.0782 C   0  0  0  0  0  0  0  0  0  0  0  0
   -1.4106   -7.4566   -2.6349 C   0  0  0  0  0  0  0  0  0  0  0  0
    4.1685   -5.1897   -2.1825 C   0  0  0  0  0  0  0  0  0  0  0  0
   -1.0725   -6.4478   -1.5450 C   0  0  2  0  0  0  0  0  0  0  0  0
    1.5815   -3.6859   -8.9092 C   0  0  0  0  0  0  0  0  0  0  0  0
    1.8900   -2.3717   -6.8167 C   0  0  0  0  0  0  0  0  0  0  0  0
   -0.2278   -3.6245   -7.1991 C   0  0  0  0  0  0  0  0  0  0  0  0
   -1.3282   -5.8720    0.8908 C   0  0  0  0  0  0  0  0  0  0  0  0
    3.0313   -4.4567   -2.8916 C   0  0  0  0  0  0  0  0  0  0  0  0
   -1.7294   -6.8192   -0.2236 C   0  0  0  0  0  0  0  0  0  0  0  0
    3.5312   -3.6456   -3.9782 N   0  0  0  0  0  0  0  0  0  0  0  0
    1.2388   -3.5774   -7.4452 N   0  3  1  0  0  0  0  0  0  0  0  0
   -0.8984   -7.0072   -7.1517 O   0  5  0  0  0  0  0  0  0  0  0  0
   -1.5581   -5.3686    3.2062 O   0  5  0  0  0  0  0  0  0  0  0  0
    3.3766   -5.2735   -5.6222 O   0  0  0  0  0  0  0  0  0  0  0  0
    1.2379   -6.6633   -6.5066 O   0  0  0  0  0  0  0  0  0  0  0  0
   -2.6555   -7.1720    2.3359 O   0  0  0  0  0  0  0  0  0  0  0  0
   -0.7191   -7.1284   -3.8441 O   0  0  0  0  0  0  0  0  0  0  0  0
   -1.5523   -5.1497   -1.9217 O   0  0  0  0  0  0  0  0  0  0  0  0
    7.2147   -2.2123   -7.5411 H   0  0  0  0  0  0  0  0  0  0  0  0
    5.7276   -0.7211   -8.8526 H   0  0  0  0  0  0  0  0  0  0  0  0
    6.2576   -3.7807   -5.8912 H   0  0  0  0  0  0  0  0  0  0  0  0
    3.2798   -0.8004   -8.5153 H   0  0  0  0  0  0  0  0  0  0  0  0
   -1.1072   -2.0726   -5.1830 H   0  0  0  0  0  0  0  0  0  0  0  0
   -1.6816   -2.7509   -2.8840 H   0  0  0  0  0  0  0  0  0  0  0  0
    6.5778   -6.3528    0.7183 H   0  0  0  0  0  0  0  0  0  0  0  0
    5.2751   -5.2034    1.0180 H   0  0  0  0  0  0  0  0  0  0  0  0
    6.9734   -4.1541   -0.4044 H   0  0  0  0  0  0  0  0  0  0  0  0
    6.9047   -5.4885   -1.5529 H   0  0  0  0  0  0  0  0  0  0  0  0
    5.2520   -7.5085   -0.9900 H   0  0  0  0  0  0  0  0  0  0  0  0
    4.3178   -7.3996    0.4999 H   0  0  0  0  0  0  0  0  0  0  0  0
    4.6776   -3.4891   -0.9355 H   0  0  0  0  0  0  0  0  0  0  0  0
    5.6181   -3.5932   -2.4213 H   0  0  0  0  0  0  0  0  0  0  0  0
    2.9497   -6.8548   -1.5128 H   0  0  0  0  0  0  0  0  0  0  0  0
    3.0199   -5.5151   -0.3712 H   0  0  0  0  0  0  0  0  0  0  0  0
   -1.0969   -8.4640   -2.3416 H   0  0  0  0  0  0  0  0  0  0  0  0
   -2.4870   -7.4842   -2.8478 H   0  0  0  0  0  0  0  0  0  0  0  0
    4.6705   -5.8098   -2.9332 H   0  0  0  0  0  0  0  0  0  0  0  0
    0.0147   -6.3794   -1.4031 H   0  0  0  0  0  0  0  0  0  0  0  0
    1.1487   -2.8228   -9.4183 H   0  0  0  0  0  0  0  0  0  0  0  0
    2.6695   -3.6895   -8.9983 H   0  0  0  0  0  0  0  0  0  0  0  0
    1.1539   -4.6178   -9.2842 H   0  0  0  0  0  0  0  0  0  0  0  0
    1.6253   -2.3896   -5.7540 H   0  0  0  0  0  0  0  0  0  0  0  0
    1.4175   -1.4903   -7.2635 H   0  0  0  0  0  0  0  0  0  0  0  0
   -0.6480   -4.2970   -7.9579 H   0  0  0  0  0  0  0  0  0  0  0  0
   -0.6095   -2.6164   -7.4058 H   0  0  0  0  0  0  0  0  0  0  0  0
   -0.2364   -5.9179    0.9903 H   0  0  0  0  0  0  0  0  0  0  0  0
   -1.5825   -4.8400    0.6186 H   0  0  0  0  0  0  0  0  0  0  0  0
    2.5080   -3.7953   -2.1945 H   0  0  0  0  0  0  0  0  0  0  0  0
    2.3126   -5.1677   -3.3097 H   0  0  0  0  0  0  0  0  0  0  0  0
   -2.8076   -6.8369   -0.3724 H   0  0  0  0  0  0  0  0  0  0  0  0
   -1.4090   -7.8317    0.0203 H   0  0  0  0  0  0  0  0  0  0  0  0
    3.8476   -2.7093   -3.7477 H   0  0  0  0  0  0  0  0  0  0  0  0
    1.6587   -4.4034   -6.9883 H   0  0  0  0  0  0  0  0  0  0  0  0
  1  2  1  0  0  0  0
  1  3  2  0  0  0  0
  2  4  2  0  0  0  0
  3  7  1  0  0  0  0
  4  9  1  0  0  0  0
  5  6  2  0  0  0  0
  5 10  1  0  0  0  0
  6 11  1  0  0  0  0
  7  9  2  0  0  0  0
  7 13  1  0  0  0  0
  8 10  2  0  0  0  0
  8 12  1  0  0  0  0
  8 14  1  0  0  0  0
  9 25  1  0  0  0  0
 10 26  1  0  0  0  0
 11 12  2  0  0  0  0
 11 38  1  0  0  0  0
 12 37  1  0  0  0  0
 13 30  1  0  0  0  0
 13 34  2  0  0  0  0
 14 32  1  0  0  0  0
 14 35  2  0  0  0  0
 15 27  1  0  0  0  0
 15 33  1  0  0  0  0
 15 36  2  0  0  0  0
 16 17  1  0  0  0  0
 16 18  1  0  0  0  0
 17 19  1  0  0  0  0
 18 20  1  0  0  0  0
 19 22  1  0  0  0  0
 20 22  1  0  0  0  0
 21 23  1  0  0  0  0
 21 37  1  0  0  0  0
 22 28  1  0  0  0  0
 23 29  1  0  0  0  0
 23 38  1  0  0  0  0
 24 31  1  0  0  0  0
 25 31  1  0  0  0  0
 26 31  1  0  0  0  0
 27 29  1  0  0  0  0
 28 30  1  0  0  0  0
  1 39  1  0  0  0  0
  2 40  1  0  0  0  0
  3 41  1  0  0  0  0
  4 42  1  0  0  0  0
  5 43  1  0  0  0  0
  6 44  1  0  0  0  0
 16 45  1  0  0  0  0
 16 46  1  0  0  0  0
 17 47  1  0  0  0  0
 17 48  1  0  0  0  0
 18 49  1  0  0  0  0
 18 50  1  0  0  0  0
 19 51  1  0  0  0  0
 19 52  1  0  0  0  0
 20 53  1  0  0  0  0
 20 54  1  0  0  0  0
 21 55  1  0  0  0  0
 21 56  1  0  0  0  0
 22 57  1  0  0  0  0
 23 58  1  0  0  0  0
 24 59  1  0  0  0  0
 24 60  1  0  0  0  0
 24 61  1  0  0  0  0
 25 62  1  0  0  0  0
 25 63  1  0  0  0  0
 26 64  1  0  0  0  0
 26 65  1  0  0  0  0
 27 66  1  0  0  0  0
 27 67  1  0  0  0  0
 28 68  1  0  0  0  0
 28 69  1  0  0  0  0
 29 70  1  0  0  0  0
 29 71  1  0  0  0  0
 30 72  1  0  0  0  0
 31 73  1  0  0  0  0
M  CHG  3  31   1  32  -1  33  -1
M  END
$$$$
