@<TRIPOS>MOLECULE
AVX38780_3
   75    78     0     0     0
SMALL
NO_CHARGES

@<TRIPOS>ATOM
      1 C1          0.2595   -3.7172   -7.9077 C.ar      1 MOL         0.0000
      2 C2          1.3322   -3.2332   -7.1589 C.ar      1 MOL         0.0000
      3 C3         -0.9978   -3.8519   -7.3189 C.ar      1 MOL         0.0000
      4 C4          1.1475   -2.8840   -5.8211 C.ar      1 MOL         0.0000
      5 C5         -2.0092   -2.8069   -0.6774 C.ar      1 MOL         0.0000
      6 C6         -6.1644   -3.8772   -7.4550 C.ar      1 MOL         0.0000
      7 C7         -6.0194   -5.1997   -5.4384 C.ar      1 MOL         0.0000
      8 C8         -3.0247   -3.5450   -0.0691 C.ar      1 MOL         0.0000
      9 C9         -6.9158   -4.8840   -8.0612 C.ar      1 MOL         0.0000
     10 C10        -6.7708   -6.2065   -6.0445 C.ar      1 MOL         0.0000
     11 C11        -1.1824   -3.5027   -5.9811 C.ar      1 MOL         0.0000
     12 C12        -3.6620   -1.4625   -1.8206 C.ar      1 MOL         0.0000
     13 C13        -5.7162   -4.0351   -6.1436 C.ar      1 MOL         0.0000
     14 C14        -0.1098   -3.0187   -5.2322 C.ar      1 MOL         0.0000
     15 C15        -2.3274   -1.7637   -1.5477 C.ar      1 MOL         0.0000
     16 C16        -4.3596   -3.2350   -0.3307 C.ar      1 MOL         0.0000
     17 C17        -4.6780   -2.2086   -1.2227 C.ar      1 MOL         0.0000
     18 C18        -7.2190   -6.0486   -7.3560 C.ar      1 MOL         0.0000
     19 C19         1.4316    1.2788   -3.3894 C.2       1 MOL         0.0000
     20 C20         1.0509    0.0831   -3.8524 C.2       1 MOL         0.0000
     21 C21        -2.5055   -3.6539   -5.3909 C.2       1 MOL         0.0000
     22 C22        -3.9946   -0.3633   -2.7497 C.2       1 MOL         0.0000
     23 C23        -7.2806   -3.9214    3.2535 C.2       1 MOL         0.0000
     24 C24        -6.8940   -2.9000   -1.1624 C.3       1 MOL         0.0000
     25 C25        -6.6061   -3.3666    0.2584 C.3       1 MOL         0.0000
     26 C26        -8.2270   -8.1945   -7.1692 C.3       1 MOL         0.0000
     27 C27        -4.9079   -2.9513   -5.4908 C.3       1 MOL         0.0000
     28 C28        -0.2799   -2.6362   -3.7915 C.3       1 MOL         0.0000
     29 C29        -1.2157   -0.9880   -2.1764 C.3       1 MOL         0.0000
     30 C30        -0.3192   -0.2135   -4.3666 C.3       1 MOL         0.0000
     31 C31        -7.2999   -4.9330    2.1014 C.3       1 MOL         0.0000
     32 C32        -7.6275   -4.3950    0.7216 C.3       1 MOL         0.0000
     33 N1         -3.5466   -2.9254   -5.9754 N.am      1 MOL         0.0000
     34 N2         -1.0008   -1.3248   -3.6097 N.4       1 MOL         0.0000
     35 O1         -4.1459    0.8203   -2.2721 O.co2     1 MOL         0.0000
     36 O2         -6.4931   -4.1700    4.2071 O.co2     1 MOL         0.0000
     37 O3         -2.6727   -4.3862   -4.4009 O.2       1 MOL         0.0000
     38 O4         -4.1203   -0.6326   -4.0002 O.co2     1 MOL         0.0000
     39 O5         -8.0617   -2.9394    3.0941 O.co2     1 MOL         0.0000
     40 O6         -5.9678   -1.8781   -1.5450 O.3       1 MOL         0.0000
     41 O7         -5.3116   -3.9813    0.3126 O.3       1 MOL         0.0000
     42 O8         -7.9533   -7.0303   -7.9473 O.3       1 MOL         0.0000
     43 H1          0.4027   -3.9892   -8.9497 H         1 MOL         0.0000
     44 H2          2.3110   -3.1288   -7.6179 H         1 MOL         0.0000
     45 H3         -1.8254   -4.2313   -7.9128 H         1 MOL         0.0000
     46 H4          1.9898   -2.5074   -5.2467 H         1 MOL         0.0000
     47 H5         -0.9717   -3.0499   -0.4630 H         1 MOL         0.0000
     48 H6         -5.9328   -2.9733   -8.0119 H         1 MOL         0.0000
     49 H7         -5.6742   -5.3314   -4.4161 H         1 MOL         0.0000
     50 H8         -2.7681   -4.3491    0.6151 H         1 MOL         0.0000
     51 H9         -7.2624   -4.7550   -9.0832 H         1 MOL         0.0000
     52 H10        -7.0039   -7.1110   -5.4898 H         1 MOL         0.0000
     53 H11         2.4443    1.4331   -3.0331 H         1 MOL         0.0000
     54 H12         0.7473    2.1193   -3.3581 H         1 MOL         0.0000
     55 H13         1.7775   -0.7250   -3.8671 H         1 MOL         0.0000
     56 H14        -6.8208   -3.7220   -1.8859 H         1 MOL         0.0000
     57 H15        -7.9001   -2.4733   -1.2335 H         1 MOL         0.0000
     58 H16        -6.6074   -2.5160    0.9536 H         1 MOL         0.0000
     59 H17        -8.8201   -8.8972   -7.7596 H         1 MOL         0.0000
     60 H18        -8.7723   -7.9102   -6.2657 H         1 MOL         0.0000
     61 H19        -7.2816   -8.6650   -6.8888 H         1 MOL         0.0000
     62 H20        -5.3530   -1.9689   -5.6826 H         1 MOL         0.0000
     63 H21        -4.8740   -3.0865   -4.4046 H         1 MOL         0.0000
     64 H22        -0.8577   -3.3908   -3.2471 H         1 MOL         0.0000
     65 H23         0.6897   -2.5341   -3.2922 H         1 MOL         0.0000
     66 H24        -1.4067    0.0920   -2.1370 H         1 MOL         0.0000
     67 H25        -0.2604   -1.1716   -1.6681 H         1 MOL         0.0000
     68 H26        -0.2687   -0.5378   -5.4106 H         1 MOL         0.0000
     69 H27        -0.9853    0.6528   -4.3026 H         1 MOL         0.0000
     70 H28        -8.0655   -5.6752    2.3603 H         1 MOL         0.0000
     71 H29        -6.3369   -5.4584    2.0824 H         1 MOL         0.0000
     72 H30        -8.6135   -3.9345    0.6896 H         1 MOL         0.0000
     73 H31        -7.6151   -5.2086   -0.0032 H         1 MOL         0.0000
     74 H32        -3.3419   -2.2939   -6.7430 H         1 MOL         0.0000
     75 H33        -1.9300   -1.4433   -4.0454 H         1 MOL         0.0000
@<TRIPOS>BOND
     1    1    2 ar
     2    1    3 ar
     3    2    4 ar
     4    3   11 ar
     5    4   14 ar
     6    5    8 ar
     7    5   15 ar
     8    6    9 ar
     9    6   13 ar
    10    7   10 ar
    11    7   13 ar
    12    8   16 ar
    13    9   18 ar
    14   10   18 ar
    15   11   14 ar
    16   11   21 1
    17   12   15 ar
    18   12   17 ar
    19   12   22 1
    20   13   27 1
    21   14   28 1
    22   15   29 1
    23   16   17 ar
    24   16   41 1
    25   17   40 1
    26   18   42 1
    27   19   20 2
    28   20   30 1
    29   21   33 am
    30   21   37 2
    31   22   35 1
    32   22   38 2
    33   23   31 1
    34   23   36 1
    35   23   39 2
    36   24   25 1
    37   24   40 1
    38   25   32 1
    39   25   41 1
    40   26   42 1
    41   27   33 1
    42   28   34 1
    43   29   34 1
    44   30   34 1
    45   31   32 1
    46    1   43 1
    47    2   44 1
    48    3   45 1
    49    4   46 1
    50    5   47 1
    51    6   48 1
    52    7   49 1
    53    8   50 1
    54    9   51 1
    55   10   52 1
    56   19   53 1
    57   19   54 1
    58   20   55 1
    59   24   56 1
    60   24   57 1
    61   25   58 1
    62   26   59 1
    63   26   60 1
    64   26   61 1
    65   27   62 1
    66   27   63 1
    67   28   64 1
    68   28   65 1
    69   29   66 1
    70   29   67 1
    71   30   68 1
    72   30   69 1
    73   31   70 1
    74   31   71 1
    75   32   72 1
    76   32   73 1
    77   33   74 1
    78   34   75 1
