AVX38784_7
  -OEChem-04011315013D

 66 68  0     1  0  0  0  0  0999 V2000
    0.8041   -1.4712   -8.3538 C   0  0  0  0  0  0  0  0  0  0  0  0
    0.0708   -0.3296   -8.0304 C   0  0  0  0  0  0  0  0  0  0  0  0
    1.2986   -2.2927   -7.3407 C   0  0  0  0  0  0  0  0  0  0  0  0
   -0.1679   -0.0093   -6.6939 C   0  0  0  0  0  0  0  0  0  0  0  0
   -0.1264   -2.8783   -0.9826 C   0  0  0  0  0  0  0  0  0  0  0  0
    0.8659   -3.4016   -0.1534 C   0  0  0  0  0  0  0  0  0  0  0  0
    1.0600   -1.9724   -6.0042 C   0  0  0  0  0  0  0  0  0  0  0  0
    0.8251   -0.6690   -0.7379 C   0  0  0  0  0  0  0  0  0  0  0  0
    0.3267   -0.8308   -5.6808 C   0  0  0  0  0  0  0  0  0  0  0  0
   -0.1436   -1.5148   -1.2787 C   0  0  0  0  0  0  0  0  0  0  0  0
    1.8432   -2.5585    0.3763 C   0  0  0  0  0  0  0  0  0  0  0  0
    1.8101   -1.1896    0.1019 C   0  0  0  0  0  0  0  0  0  0  0  0
    1.5885   -2.8471   -4.9662 C   0  0  0  0  0  0  0  0  0  0  0  0
    0.7979    0.7754   -1.0464 C   0  0  0  0  0  0  0  0  0  0  0  0
    6.0518   -4.5184    0.9205 C   0  0  0  0  0  0  0  0  0  0  0  0
    3.4531   -0.8695    1.7113 C   0  0  0  0  0  0  0  0  0  0  0  0
    3.9324   -2.2713    1.3581 C   0  0  1  0  0  0  0  0  0  0  0  0
    5.0222   -1.9168   -3.0948 C   0  0  0  0  0  0  0  0  0  0  0  0
    3.7249   -5.2932   -4.5191 C   0  0  0  0  0  0  0  0  0  0  0  0
   -2.2816   -1.3075   -4.4044 C   0  0  0  0  0  0  0  0  0  0  0  0
    0.0557   -0.4623   -4.2519 C   0  0  0  0  0  0  0  0  0  0  0  0
   -1.2157   -0.9880   -2.1764 C   0  0  0  0  0  0  0  0  0  0  0  0
    5.1930   -4.2919    2.1703 C   0  0  0  0  0  0  0  0  0  0  0  0
    4.7840   -2.8628    2.4717 C   0  0  0  0  0  0  0  0  0  0  0  0
    5.0486   -3.3380   -3.6426 C   0  0  0  0  0  0  0  0  0  0  0  0
    3.6487   -3.8706   -3.9746 C   0  0  1  0  0  0  0  0  0  0  0  0
    2.9762   -3.0180   -4.9284 N   0  0  0  0  0  0  0  0  0  0  0  0
   -1.0008   -1.3248   -3.6097 N   0  3  1  0  0  0  0  0  0  0  0  0
    1.4456    1.1965   -2.0736 O   0  5  0  0  0  0  0  0  0  0  0  0
    5.9159   -5.6293    0.3384 O   0  5  0  0  0  0  0  0  0  0  0  0
    0.8203   -3.4204   -4.1755 O   0  0  0  0  0  0  0  0  0  0  0  0
    0.1279    1.5558   -0.2757 O   0  0  0  0  0  0  0  0  0  0  0  0
    6.7932   -3.5397    0.6167 O   0  0  0  0  0  0  0  0  0  0  0  0
    2.7215   -0.3064    0.6177 O   0  0  0  0  0  0  0  0  0  0  0  0
    2.8032   -3.1343    1.1661 O   0  0  0  0  0  0  0  0  0  0  0  0
    0.9901   -1.7211   -9.3944 H   0  0  0  0  0  0  0  0  0  0  0  0
   -0.3138    0.3098   -8.8197 H   0  0  0  0  0  0  0  0  0  0  0  0
    1.8696   -3.1789   -7.6057 H   0  0  0  0  0  0  0  0  0  0  0  0
   -0.7408    0.8822   -6.4528 H   0  0  0  0  0  0  0  0  0  0  0  0
   -0.8800   -3.5428   -1.3971 H   0  0  0  0  0  0  0  0  0  0  0  0
    0.8778   -4.4662    0.0638 H   0  0  0  0  0  0  0  0  0  0  0  0
    2.8057   -0.8695    2.5975 H   0  0  0  0  0  0  0  0  0  0  0  0
    4.3032   -0.2086    1.9113 H   0  0  0  0  0  0  0  0  0  0  0  0
    4.5128   -2.2591    0.4255 H   0  0  0  0  0  0  0  0  0  0  0  0
    4.4157   -1.8492   -2.1865 H   0  0  0  0  0  0  0  0  0  0  0  0
    6.0370   -1.5913   -2.8448 H   0  0  0  0  0  0  0  0  0  0  0  0
    4.6157   -1.2194   -3.8342 H   0  0  0  0  0  0  0  0  0  0  0  0
    4.3339   -5.3333   -5.4280 H   0  0  0  0  0  0  0  0  0  0  0  0
    4.1619   -5.9775   -3.7830 H   0  0  0  0  0  0  0  0  0  0  0  0
    2.7256   -5.6692   -4.7649 H   0  0  0  0  0  0  0  0  0  0  0  0
   -2.6787   -0.2912   -4.3757 H   0  0  0  0  0  0  0  0  0  0  0  0
   -2.0446   -1.6077   -5.4268 H   0  0  0  0  0  0  0  0  0  0  0  0
   -2.9732   -2.0122   -3.9387 H   0  0  0  0  0  0  0  0  0  0  0  0
    0.9582   -0.5618   -3.6393 H   0  0  0  0  0  0  0  0  0  0  0  0
   -0.2910    0.5735   -4.1695 H   0  0  0  0  0  0  0  0  0  0  0  0
   -2.2000   -1.3922   -1.9073 H   0  0  0  0  0  0  0  0  0  0  0  0
   -1.2836    0.1060   -2.1218 H   0  0  0  0  0  0  0  0  0  0  0  0
    5.7872   -4.6547    3.0184 H   0  0  0  0  0  0  0  0  0  0  0  0
    4.3045   -4.9323    2.1037 H   0  0  0  0  0  0  0  0  0  0  0  0
    5.6476   -2.2167    2.6202 H   0  0  0  0  0  0  0  0  0  0  0  0
    4.1859   -2.8353    3.3822 H   0  0  0  0  0  0  0  0  0  0  0  0
    5.6675   -3.3470   -4.5480 H   0  0  0  0  0  0  0  0  0  0  0  0
    5.5395   -3.9916   -2.9108 H   0  0  0  0  0  0  0  0  0  0  0  0
    3.0326   -3.8723   -3.0680 H   0  0  0  0  0  0  0  0  0  0  0  0
    3.5513   -2.5755   -5.6378 H   0  0  0  0  0  0  0  0  0  0  0  0
   -0.6472   -2.2946   -3.6529 H   0  0  0  0  0  0  0  0  0  0  0  0
  1  2  1  0  0  0  0
  1  3  2  0  0  0  0
  2  4  2  0  0  0  0
  3  7  1  0  0  0  0
  4  9  1  0  0  0  0
  5  6  2  0  0  0  0
  5 10  1  0  0  0  0
  6 11  1  0  0  0  0
  7  9  2  0  0  0  0
  7 13  1  0  0  0  0
  8 10  2  0  0  0  0
  8 12  1  0  0  0  0
  8 14  1  0  0  0  0
  9 21  1  0  0  0  0
 10 22  1  0  0  0  0
 11 12  2  0  0  0  0
 11 35  1  0  0  0  0
 12 34  1  0  0  0  0
 13 27  1  0  0  0  0
 13 31  2  0  0  0  0
 14 29  1  0  0  0  0
 14 32  2  0  0  0  0
 15 23  1  0  0  0  0
 15 30  1  0  0  0  0
 15 33  2  0  0  0  0
 16 17  1  0  0  0  0
 16 34  1  0  0  0  0
 17 24  1  0  0  0  0
 17 35  1  0  0  0  0
 18 25  1  0  0  0  0
 19 26  1  0  0  0  0
 20 28  1  0  0  0  0
 21 28  1  0  0  0  0
 22 28  1  0  0  0  0
 23 24  1  0  0  0  0
 25 26  1  0  0  0  0
 26 27  1  0  0  0  0
  1 36  1  0  0  0  0
  2 37  1  0  0  0  0
  3 38  1  0  0  0  0
  4 39  1  0  0  0  0
  5 40  1  0  0  0  0
  6 41  1  0  0  0  0
 16 42  1  0  0  0  0
 16 43  1  0  0  0  0
 17 44  1  0  0  0  0
 18 45  1  0  0  0  0
 18 46  1  0  0  0  0
 18 47  1  0  0  0  0
 19 48  1  0  0  0  0
 19 49  1  0  0  0  0
 19 50  1  0  0  0  0
 20 51  1  0  0  0  0
 20 52  1  0  0  0  0
 20 53  1  0  0  0  0
 21 54  1  0  0  0  0
 21 55  1  0  0  0  0
 22 56  1  0  0  0  0
 22 57  1  0  0  0  0
 23 58  1  0  0  0  0
 23 59  1  0  0  0  0
 24 60  1  0  0  0  0
 24 61  1  0  0  0  0
 25 62  1  0  0  0  0
 25 63  1  0  0  0  0
 26 64  1  0  0  0  0
 27 65  1  0  0  0  0
 28 66  1  0  0  0  0
M  CHG  3  28   1  29  -1  30  -1
M  END
$$$$
