@<TRIPOS>MOLECULE
AVX38748_1
   67    70     0     0     0
SMALL
NO_CHARGES

@<TRIPOS>ATOM
      1 C1          1.8121    1.8090   -1.1916 C.ar      1 MOL         0.0000
      2 C2          1.2445    1.0062   -2.1923 C.ar      1 MOL         0.0000
      3 C3          1.4139    1.6723    0.1391 C.ar      1 MOL         0.0000
      4 C4          0.2716    0.0548   -1.8762 C.ar      1 MOL         0.0000
      5 C5         -3.5155   -2.9249    0.0660 C.ar      1 MOL         0.0000
      6 C6         -4.4907   -3.7074    0.6847 C.ar      1 MOL         0.0000
      7 C7         -1.7992   -4.4447    0.8346 C.ar      1 MOL         0.0000
      8 C8          0.4574    0.7177    0.4451 C.ar      1 MOL         0.0000
      9 C9         -0.1106   -0.0875   -0.5510 C.ar      1 MOL         0.0000
     10 C10        -2.1712   -3.2900    0.1456 C.ar      1 MOL         0.0000
     11 C11        -4.1180   -4.8546    1.3857 C.ar      1 MOL         0.0000
     12 C12        -2.7754   -5.2351    1.4419 C.ar      1 MOL         0.0000
     13 C13        -0.3758   -4.8329    0.9086 C.2       1 MOL         0.0000
     14 C14        -1.7755   -1.7981    3.6539 C.2       1 MOL         0.0000
     15 C15        -8.0774   -7.5521    4.4708 C.2       1 MOL         0.0000
     16 C16        -0.1388    0.4223    1.7852 C.3       1 MOL         0.0000
     17 C17        -3.4319   -7.2639    2.3599 C.3       1 MOL         0.0000
     18 C18        -1.1518   -1.0021    0.0354 C.3       1 MOL         0.0000
     19 C19        -0.7658   -0.9617    1.5347 C.3       1 MOL         0.0000
     20 C20        -4.6095   -6.5020    2.9535 C.3       1 MOL         0.0000
     21 C21        -1.1435   -2.4184   -0.5254 C.3       1 MOL         0.0000
     22 C22        -3.1238   -1.9132    4.3463 C.3       1 MOL         0.0000
     23 C23        -6.8857   -6.7068    4.0058 C.3       1 MOL         0.0000
     24 C24        -5.7438   -7.4431    3.3319 C.3       1 MOL         0.0000
     25 C25        -3.2274   -3.1034    5.2988 C.3       1 MOL         0.0000
     26 C26        -4.5702   -3.1470    6.0342 C.3       1 MOL         0.0000
     27 C27        -4.6496   -4.3602    6.9498 C.3       1 MOL         0.0000
     28 N1         -1.8889   -1.2126    2.3971 N.am      1 MOL         0.0000
     29 N2         -5.9434   -4.3385    7.6738 N.4       1 MOL         0.0000
     30 O1          0.1009   -5.5972   -0.0082 O.co2     1 MOL         0.0000
     31 O2         -9.0234   -6.9316    5.0290 O.co2     1 MOL         0.0000
     32 O3          0.3312   -4.3917    1.8871 O.co2     1 MOL         0.0000
     33 O4         -0.7219   -2.1640    4.1677 O.2       1 MOL         0.0000
     34 O5         -7.9662   -8.7868    4.2201 O.co2     1 MOL         0.0000
     35 O6         -2.3507   -6.3674    2.0856 O.3       1 MOL         0.0000
     36 O7         -5.1183   -5.5702    1.9892 O.3       1 MOL         0.0000
     37 H1          2.5634    2.5477   -1.4572 H         1 MOL         0.0000
     38 H2          1.5604    1.1315   -3.2244 H         1 MOL         0.0000
     39 H3          1.8458    2.3010    0.9103 H         1 MOL         0.0000
     40 H4         -0.1719   -0.5499   -2.6597 H         1 MOL         0.0000
     41 H5         -3.8133   -2.0288   -0.4722 H         1 MOL         0.0000
     42 H6         -5.5340   -3.4094    0.6271 H         1 MOL         0.0000
     43 H7          0.6167    0.3767    2.5755 H         1 MOL         0.0000
     44 H8         -0.8902    1.1782    2.0386 H         1 MOL         0.0000
     45 H9         -3.0622   -8.0165    3.0644 H         1 MOL         0.0000
     46 H10        -3.7030   -7.7754    1.4274 H         1 MOL         0.0000
     47 H11        -2.1407   -0.5507   -0.1204 H         1 MOL         0.0000
     48 H12        -0.0191   -1.7378    1.7550 H         1 MOL         0.0000
     49 H13        -4.2972   -5.9349    3.8411 H         1 MOL         0.0000
     50 H14        -0.1470   -2.8572   -0.4016 H         1 MOL         0.0000
     51 H15        -1.3308   -2.3878   -1.6049 H         1 MOL         0.0000
     52 H16        -3.9169   -1.9619    3.5908 H         1 MOL         0.0000
     53 H17        -3.2689   -0.9883    4.9180 H         1 MOL         0.0000
     54 H18        -6.4853   -6.2232    4.9058 H         1 MOL         0.0000
     55 H19        -7.2583   -5.9088    3.3514 H         1 MOL         0.0000
     56 H20        -6.0704   -7.9618    2.4323 H         1 MOL         0.0000
     57 H21        -5.3305   -8.1853    4.0143 H         1 MOL         0.0000
     58 H22        -3.0696   -4.0420    4.7541 H         1 MOL         0.0000
     59 H23        -2.4217   -3.0255    6.0393 H         1 MOL         0.0000
     60 H24        -4.6946   -2.2297    6.6232 H         1 MOL         0.0000
     61 H25        -5.3948   -3.1766    5.3123 H         1 MOL         0.0000
     62 H26        -3.8614   -4.3539    7.7084 H         1 MOL         0.0000
     63 H27        -4.6151   -5.2993    6.3897 H         1 MOL         0.0000
     64 H28        -2.8153   -0.9566    2.0587 H         1 MOL         0.0000
     65 H29        -6.3818   -3.4129    7.6159 H         1 MOL         0.0000
     66 H30        -5.8125   -4.5639    8.6662 H         1 MOL         0.0000
     67 H31        -6.5975   -5.0228    7.2784 H         1 MOL         0.0000
@<TRIPOS>BOND
     1    1    2 ar
     2    1    3 ar
     3    2    4 ar
     4    3    8 ar
     5    4    9 ar
     6    5    6 ar
     7    5   10 ar
     8    6   11 ar
     9    7   10 ar
    10    7   12 ar
    11    7   13 1
    12    8    9 ar
    13    8   16 1
    14    9   18 1
    15   10   21 1
    16   11   12 ar
    17   11   36 1
    18   12   35 1
    19   13   30 1
    20   13   32 2
    21   14   22 1
    22   14   28 am
    23   14   33 2
    24   15   23 1
    25   15   31 1
    26   15   34 2
    27   16   19 1
    28   17   20 1
    29   17   35 1
    30   18   19 1
    31   18   21 1
    32   19   28 1
    33   20   24 1
    34   20   36 1
    35   22   25 1
    36   23   24 1
    37   25   26 1
    38   26   27 1
    39   27   29 1
    40    1   37 1
    41    2   38 1
    42    3   39 1
    43    4   40 1
    44    5   41 1
    45    6   42 1
    46   16   43 1
    47   16   44 1
    48   17   45 1
    49   17   46 1
    50   18   47 1
    51   19   48 1
    52   20   49 1
    53   21   50 1
    54   21   51 1
    55   22   52 1
    56   22   53 1
    57   23   54 1
    58   23   55 1
    59   24   56 1
    60   24   57 1
    61   25   58 1
    62   25   59 1
    63   26   60 1
    64   26   61 1
    65   27   62 1
    66   27   63 1
    67   28   64 1
    68   29   65 1
    69   29   66 1
    70   29   67 1
