@<TRIPOS>MOLECULE
AVX38711_0
   37    39     0     0     0
SMALL
NO_CHARGES

@<TRIPOS>ATOM
      1 C1          6.1623   -3.3720    6.4480 C.ar      1 MOL         0.0000
      2 C2          4.7761   -3.3034    6.3094 C.ar      1 MOL         0.0000
      3 C3          6.9892   -2.9329    5.4140 C.ar      1 MOL         0.0000
      4 C4          1.3698   -1.5692   -0.5690 C.ar      1 MOL         0.0000
      5 C5          0.8576   -0.5942    0.3034 C.ar      1 MOL         0.0000
      6 C6          4.2167   -2.7958    5.1368 C.ar      1 MOL         0.0000
      7 C7          6.4299   -2.4253    4.2414 C.ar      1 MOL         0.0000
      8 C8          2.4668   -2.3516   -0.1986 C.ar      1 MOL         0.0000
      9 C9          1.4387   -0.3848    1.5551 C.ar      1 MOL         0.0000
     10 C10         5.0436   -2.3567    4.1028 C.ar      1 MOL         0.0000
     11 C11         3.0373   -2.1324    1.0429 C.ar      1 MOL         0.0000
     12 C12         2.5309   -1.1592    1.8938 C.ar      1 MOL         0.0000
     13 C13         0.9022    0.6337    2.4688 C.2       1 MOL         0.0000
     14 C14         4.9147   -5.5004    0.2681 C.2       1 MOL         0.0000
     15 C15         4.1601   -2.8465    1.7140 C.3       1 MOL         0.0000
     16 C16         4.4382   -1.8068    2.8318 C.3       1 MOL         0.0000
     17 C17         3.6198   -5.2084    1.0353 C.3       1 MOL         0.0000
     18 C18         3.7099   -4.2277    2.1859 C.3       1 MOL         0.0000
     19 O1         -0.1194    1.3262    2.0974 O.co2     1 MOL         0.0000
     20 O2          4.7909   -5.8005   -0.9510 O.co2     1 MOL         0.0000
     21 O3          1.4701    0.8034    3.6134 O.co2     1 MOL         0.0000
     22 O4          5.9655   -5.3890    0.9634 O.co2     1 MOL         0.0000
     23 O5          3.2065   -1.0730    3.0856 O.3       1 MOL         0.0000
     24 H1          6.5977   -3.7661    7.3617 H         1 MOL         0.0000
     25 H2          4.1321   -3.6442    7.1149 H         1 MOL         0.0000
     26 H3          8.0685   -2.9852    5.5220 H         1 MOL         0.0000
     27 H4          0.9023   -1.7215   -1.5381 H         1 MOL         0.0000
     28 H5         -0.0007   -0.0046   -0.0098 H         1 MOL         0.0000
     29 H6          3.1355   -2.7463    5.0375 H         1 MOL         0.0000
     30 H7          7.0819   -2.0857    3.4410 H         1 MOL         0.0000
     31 H8          2.8514   -3.1148   -0.8663 H         1 MOL         0.0000
     32 H9          5.0334   -2.9402    1.0591 H         1 MOL         0.0000
     33 H10         5.1682   -1.0554    2.4384 H         1 MOL         0.0000
     34 H11         3.2858   -6.1694    1.4464 H         1 MOL         0.0000
     35 H12         2.8555   -4.8830    0.3184 H         1 MOL         0.0000
     36 H13         4.4020   -4.5611    2.9548 H         1 MOL         0.0000
     37 H14         2.7312   -4.1006    2.6440 H         1 MOL         0.0000
@<TRIPOS>BOND
     1    1    2 ar
     2    1    3 ar
     3    2    6 ar
     4    3    7 ar
     5    4    5 ar
     6    4    8 ar
     7    5    9 ar
     8    6   10 ar
     9    7   10 ar
    10    8   11 ar
    11    9   12 ar
    12    9   13 1
    13   10   16 1
    14   11   12 ar
    15   11   15 1
    16   12   23 1
    17   13   19 1
    18   13   21 2
    19   14   17 1
    20   14   20 1
    21   14   22 2
    22   15   16 1
    23   15   18 1
    24   16   23 1
    25   17   18 1
    26    1   24 1
    27    2   25 1
    28    3   26 1
    29    4   27 1
    30    5   28 1
    31    6   29 1
    32    7   30 1
    33    8   31 1
    34   15   32 1
    35   16   33 1
    36   17   34 1
    37   17   35 1
    38   18   36 1
    39   18   37 1
