AVX38783_1
  -OEChem-04011315003D

 68 71  0     1  0  0  0  0  0999 V2000
    8.0873   -2.3334    2.9534 C   0  0  0  0  0  0  0  0  0  0  0  0
    7.5001   -2.8576    1.8020 C   0  0  0  0  0  0  0  0  0  0  0  0
    0.6007    1.6215    4.5731 C   0  0  0  0  0  0  0  0  0  0  0  0
    7.4263   -1.3479    3.6868 C   0  0  0  0  0  0  0  0  0  0  0  0
    6.2519   -2.3962    1.3836 C   0  0  0  0  0  0  0  0  0  0  0  0
    2.4921   -1.6913   -1.3574 C   0  0  0  0  0  0  0  0  0  0  0  0
    2.6028   -1.1296   -2.6296 C   0  0  0  0  0  0  0  0  0  0  0  0
    1.8895    2.0243    4.9973 C   0  0  0  0  0  0  0  0  0  0  0  0
    0.5559    0.2559    4.7315 C   0  0  0  0  0  0  0  0  0  0  0  0
    6.1782   -0.8866    3.2684 C   0  0  0  0  0  0  0  0  0  0  0  0
    1.6214    0.3967   -0.5042 C   0  0  0  0  0  0  0  0  0  0  0  0
    5.5910   -1.4107    2.1169 C   0  0  0  0  0  0  0  0  0  0  0  0
    2.0073   -0.9275   -0.2951 C   0  0  0  0  0  0  0  0  0  0  0  0
    2.2301    0.1988   -2.8363 C   0  0  0  0  0  0  0  0  0  0  0  0
    1.7189    0.9548   -1.7791 C   0  0  0  0  0  0  0  0  0  0  0  0
    2.5402    0.8762    5.3850 C   0  0  0  0  0  0  0  0  0  0  0  0
    1.0462   -4.0127    3.6032 C   0  0  0  0  0  0  0  0  0  0  0  0
    2.1447   -3.8981    2.8487 C   0  0  0  0  0  0  0  0  0  0  0  0
    5.5103    0.1436    4.0523 C   0  0  0  0  0  0  0  0  0  0  0  0
    1.0998    1.1992    0.6211 C   0  0  0  0  0  0  0  0  0  0  0  0
    3.4068    2.5918   -7.8721 C   0  0  0  0  0  0  0  0  0  0  0  0
    1.1203    2.6023   -3.3014 C   0  0  0  0  0  0  0  0  0  0  0  0
    2.3098    2.1322   -4.1283 C   0  0  2  0  0  0  0  0  0  0  0  0
    4.2499   -0.9325    1.6439 C   0  0  0  0  0  0  0  0  0  0  0  0
    1.9102   -1.5569    1.0567 C   0  0  0  0  0  0  0  0  0  0  0  0
    3.9146    0.6079    5.9267 C   0  0  0  0  0  0  0  0  0  0  0  0
    3.0773   -2.7334    2.9064 C   0  0  0  0  0  0  0  0  0  0  0  0
    3.3993    2.1785   -6.3957 C   0  0  0  0  0  0  0  0  0  0  0  0
    2.1789    2.5634   -5.5817 C   0  0  0  0  0  0  0  0  0  0  0  0
    4.6645   -0.2902    5.0783 N   0  0  0  0  0  0  0  0  0  0  0  0
    3.2198   -2.0313    1.5800 N   0  3  2  0  0  0  0  0  0  0  0  0
   -0.1652    1.1897    0.8481 O   0  5  0  0  0  0  0  0  0  0  0  0
    4.4249    2.2665   -8.5422 O   0  5  0  0  0  0  0  0  0  0  0  0
    5.6835    1.3456    3.7890 O   0  0  0  0  0  0  0  0  0  0  0  0
    1.9310    1.8764    1.3299 O   0  0  0  0  0  0  0  0  0  0  0  0
    2.3659    3.2073   -8.2433 O   0  0  0  0  0  0  0  0  0  0  0  0
    1.7341   -0.2062    5.2261 O   0  0  0  0  0  0  0  0  0  0  0  0
    1.3050    2.2525   -1.9261 O   0  0  0  0  0  0  0  0  0  0  0  0
    2.3811    0.6999   -4.1024 O   0  0  0  0  0  0  0  0  0  0  0  0
    9.0592   -2.6924    3.2798 H   0  0  0  0  0  0  0  0  0  0  0  0
    8.0153   -3.6247    1.2312 H   0  0  0  0  0  0  0  0  0  0  0  0
   -0.1957    2.2480    4.1983 H   0  0  0  0  0  0  0  0  0  0  0  0
    7.8950   -0.9467    4.5817 H   0  0  0  0  0  0  0  0  0  0  0  0
    5.8030   -2.8117    0.4853 H   0  0  0  0  0  0  0  0  0  0  0  0
    2.7912   -2.7247   -1.2030 H   0  0  0  0  0  0  0  0  0  0  0  0
    2.9919   -1.7283   -3.4486 H   0  0  0  0  0  0  0  0  0  0  0  0
    2.2911    3.0275    5.0165 H   0  0  0  0  0  0  0  0  0  0  0  0
   -0.2003   -0.4932    4.5481 H   0  0  0  0  0  0  0  0  0  0  0  0
    0.4101   -4.8870    3.5183 H   0  0  0  0  0  0  0  0  0  0  0  0
    0.7636   -3.2445    4.3143 H   0  0  0  0  0  0  0  0  0  0  0  0
    2.3859   -4.6993    2.1550 H   0  0  0  0  0  0  0  0  0  0  0  0
    1.0196    3.6916   -3.3514 H   0  0  0  0  0  0  0  0  0  0  0  0
    0.1787    2.1576   -3.6486 H   0  0  0  0  0  0  0  0  0  0  0  0
    3.2489    2.5260   -3.7162 H   0  0  0  0  0  0  0  0  0  0  0  0
    3.8469   -0.1619    2.3097 H   0  0  0  0  0  0  0  0  0  0  0  0
    4.3151   -0.5036    0.6381 H   0  0  0  0  0  0  0  0  0  0  0  0
    1.5158   -0.8528    1.8005 H   0  0  0  0  0  0  0  0  0  0  0  0
    1.2457   -2.4303    1.0463 H   0  0  0  0  0  0  0  0  0  0  0  0
    4.4829    1.5402    6.0166 H   0  0  0  0  0  0  0  0  0  0  0  0
    3.8632    0.1608    6.9250 H   0  0  0  0  0  0  0  0  0  0  0  0
    4.0809   -3.0669    3.1877 H   0  0  0  0  0  0  0  0  0  0  0  0
    2.7498   -1.9720    3.6213 H   0  0  0  0  0  0  0  0  0  0  0  0
    4.2711    2.6637   -5.9389 H   0  0  0  0  0  0  0  0  0  0  0  0
    3.5666    1.0958   -6.3357 H   0  0  0  0  0  0  0  0  0  0  0  0
    1.2675    2.1264   -5.9859 H   0  0  0  0  0  0  0  0  0  0  0  0
    2.0604    3.6466   -5.5853 H   0  0  0  0  0  0  0  0  0  0  0  0
    4.5106   -1.2847    5.2089 H   0  0  0  0  0  0  0  0  0  0  0  0
    3.5872   -2.7334    0.9171 H   0  0  0  0  0  0  0  0  0  0  0  0
  1  2  1  0  0  0  0
  1  4  2  0  0  0  0
  2  5  2  0  0  0  0
  3  8  1  0  0  0  0
  3  9  2  0  0  0  0
  4 10  1  0  0  0  0
  5 12  1  0  0  0  0
  6  7  2  0  0  0  0
  6 13  1  0  0  0  0
  7 14  1  0  0  0  0
  8 16  2  0  0  0  0
  9 37  1  0  0  0  0
 10 12  2  0  0  0  0
 10 19  1  0  0  0  0
 11 13  2  0  0  0  0
 11 15  1  0  0  0  0
 11 20  1  0  0  0  0
 12 24  1  0  0  0  0
 13 25  1  0  0  0  0
 14 15  2  0  0  0  0
 14 39  1  0  0  0  0
 15 38  1  0  0  0  0
 16 26  1  0  0  0  0
 16 37  1  0  0  0  0
 17 18  2  0  0  0  0
 18 27  1  0  0  0  0
 19 30  1  0  0  0  0
 19 34  2  0  0  0  0
 20 32  1  0  0  0  0
 20 35  2  0  0  0  0
 21 28  1  0  0  0  0
 21 33  1  0  0  0  0
 21 36  2  0  0  0  0
 22 23  1  0  0  0  0
 22 38  1  0  0  0  0
 23 29  1  0  0  0  0
 23 39  1  0  0  0  0
 24 31  1  0  0  0  0
 25 31  1  0  0  0  0
 26 30  1  0  0  0  0
 27 31  1  0  0  0  0
 28 29  1  0  0  0  0
  1 40  1  0  0  0  0
  2 41  1  0  0  0  0
  3 42  1  0  0  0  0
  4 43  1  0  0  0  0
  5 44  1  0  0  0  0
  6 45  1  0  0  0  0
  7 46  1  0  0  0  0
  8 47  1  0  0  0  0
  9 48  1  0  0  0  0
 17 49  1  0  0  0  0
 17 50  1  0  0  0  0
 18 51  1  0  0  0  0
 22 52  1  0  0  0  0
 22 53  1  0  0  0  0
 23 54  1  0  0  0  0
 24 55  1  0  0  0  0
 24 56  1  0  0  0  0
 25 57  1  0  0  0  0
 25 58  1  0  0  0  0
 26 59  1  0  0  0  0
 26 60  1  0  0  0  0
 27 61  1  0  0  0  0
 27 62  1  0  0  0  0
 28 63  1  0  0  0  0
 28 64  1  0  0  0  0
 29 65  1  0  0  0  0
 29 66  1  0  0  0  0
 30 67  1  0  0  0  0
 31 68  1  0  0  0  0
M  CHG  3  31   1  32  -1  33  -1
M  END
$$$$
