@<TRIPOS>MOLECULE
AVX38674_0
   59    62     0     0     0
SMALL
NO_CHARGES

@<TRIPOS>ATOM
      1 C1          4.3063    3.2843   -4.5403 C.ar      1 MOL         0.0000
      2 C2          3.8350    0.9248    2.1364 C.ar      1 MOL         0.0000
      3 C3          3.0643    3.8629   -4.2792 C.ar      1 MOL         0.0000
      4 C4          4.4313    1.8961   -4.5956 C.ar      1 MOL         0.0000
      5 C5          3.9377   -0.4156    1.7644 C.ar      1 MOL         0.0000
      6 C6          2.7754    1.7001    1.6655 C.ar      1 MOL         0.0000
      7 C7          1.9472    3.0533   -4.0733 C.ar      1 MOL         0.0000
      8 C8          3.3143    1.0865   -4.3898 C.ar      1 MOL         0.0000
      9 C9          2.9807   -0.9807    0.9213 C.ar      1 MOL         0.0000
     10 C10         1.8185    1.1351    0.8225 C.ar      1 MOL         0.0000
     11 C11         0.3407   -4.8039    3.7113 C.ar      1 MOL         0.0000
     12 C12         1.0263   -5.4811    4.7226 C.ar      1 MOL         0.0000
     13 C13        -0.7447   -6.8665    3.0071 C.ar      1 MOL         0.0000
     14 C14         2.0722    1.6651   -4.1286 C.ar      1 MOL         0.0000
     15 C15         1.9211   -0.2053    0.4504 C.ar      1 MOL         0.0000
     16 C16        -0.5398   -5.4926    2.8584 C.ar      1 MOL         0.0000
     17 C17         0.8063   -6.8374    4.8481 C.ar      1 MOL         0.0000
     18 C18        -0.0556   -7.5115    4.0134 C.ar      1 MOL         0.0000
     19 C19        -1.6615   -7.6101    2.1282 C.2       1 MOL         0.0000
     20 C20         1.2680   -0.6743   -1.9311 C.2       1 MOL         0.0000
     21 C21        -0.2663   -2.6773    0.7165 C.2       1 MOL         0.0000
     22 C22         0.7851   -8.9239    5.4206 C.3       1 MOL         0.0000
     23 C23         0.5468   -4.9683    0.1094 C.3       1 MOL         0.0000
     24 C24         0.8703    0.7931   -3.9069 C.3       1 MOL         0.0000
     25 C25        -1.2535   -4.7208    1.7865 C.3       1 MOL         0.0000
     26 C26         0.8843   -0.8167   -0.4630 C.3       1 MOL         0.0000
     27 N1          0.7004    0.4505   -2.5132 N.am      1 MOL         0.0000
     28 N2          0.6837   -2.2227   -0.1939 N.am      1 MOL         0.0000
     29 N3         -0.3217   -4.0754    0.8651 N.am      1 MOL         0.0000
     30 O1         -2.8978   -7.7196    2.4724 O.co2     1 MOL         0.0000
     31 O2         -1.1975   -8.1274    1.0438 O.co2     1 MOL         0.0000
     32 O3          1.9682   -1.4958   -2.5197 O.2       1 MOL         0.0000
     33 O4         -0.9929   -1.9032    1.3469 O.2       1 MOL         0.0000
     34 O5          1.3810   -7.6577    5.7693 O.3       1 MOL         0.0000
     35 O6         -0.1281   -8.8382    4.3074 O.3       1 MOL         0.0000
     36 H1          5.1758    3.9149   -4.7019 H         1 MOL         0.0000
     37 H2          4.5795    1.3642    2.7939 H         1 MOL         0.0000
     38 H3          2.9666    4.9438   -4.2371 H         1 MOL         0.0000
     39 H4          5.3979    1.4454   -4.8000 H         1 MOL         0.0000
     40 H5          4.7620   -1.0198    2.1318 H         1 MOL         0.0000
     41 H6          2.6946    2.7434    1.9559 H         1 MOL         0.0000
     42 H7          0.9835    3.5128   -3.8702 H         1 MOL         0.0000
     43 H8          3.4211    0.0059   -4.4346 H         1 MOL         0.0000
     44 H9          3.0689   -2.0258    0.6365 H         1 MOL         0.0000
     45 H10         0.9964    1.7469    0.4604 H         1 MOL         0.0000
     46 H11         0.4943   -3.7343    3.5892 H         1 MOL         0.0000
     47 H12         1.7060   -4.9539    5.3823 H         1 MOL         0.0000
     48 H13         1.5842   -9.6293    5.1652 H         1 MOL         0.0000
     49 H14         0.2415   -9.3078    6.2916 H         1 MOL         0.0000
     50 H15         1.4733   -5.1471    0.6612 H         1 MOL         0.0000
     51 H16         0.7939   -4.5251   -0.8591 H         1 MOL         0.0000
     52 H17         0.0480   -5.9263   -0.0606 H         1 MOL         0.0000
     53 H18        -0.0412    1.2991   -4.2434 H         1 MOL         0.0000
     54 H19         0.9521   -0.1404   -4.4735 H         1 MOL         0.0000
     55 H20        -1.9025   -5.3818    1.2019 H         1 MOL         0.0000
     56 H21        -1.8891   -3.9416    2.2203 H         1 MOL         0.0000
     57 H22        -0.0932   -0.3455   -0.3039 H         1 MOL         0.0000
     58 H23         0.1334    1.0728   -1.9448 H         1 MOL         0.0000
     59 H24         1.2543   -2.9007   -0.6847 H         1 MOL         0.0000
@<TRIPOS>BOND
     1    1    3 ar
     2    1    4 ar
     3    2    5 ar
     4    2    6 ar
     5    3    7 ar
     6    4    8 ar
     7    5    9 ar
     8    6   10 ar
     9    7   14 ar
    10    8   14 ar
    11    9   15 ar
    12   10   15 ar
    13   11   12 ar
    14   11   16 ar
    15   12   17 ar
    16   13   16 ar
    17   13   18 ar
    18   13   19 1
    19   14   24 1
    20   15   26 1
    21   16   25 1
    22   17   18 ar
    23   17   34 1
    24   18   35 1
    25   19   30 1
    26   19   31 2
    27   20   26 1
    28   20   27 am
    29   20   32 2
    30   21   28 am
    31   21   29 am
    32   21   33 2
    33   22   34 1
    34   22   35 1
    35   23   29 1
    36   24   27 1
    37   25   29 1
    38   26   28 1
    39    1   36 1
    40    2   37 1
    41    3   38 1
    42    4   39 1
    43    5   40 1
    44    6   41 1
    45    7   42 1
    46    8   43 1
    47    9   44 1
    48   10   45 1
    49   11   46 1
    50   12   47 1
    51   22   48 1
    52   22   49 1
    53   23   50 1
    54   23   51 1
    55   23   52 1
    56   24   53 1
    57   24   54 1
    58   25   55 1
    59   25   56 1
    60   26   57 1
    61   27   58 1
    62   28   59 1
