@<TRIPOS>MOLECULE
AVX38742_5
   47    50     0     0     0
SMALL
NO_CHARGES

@<TRIPOS>ATOM
      1 C1         -4.4937    1.0896   -4.5208 C.ar      1 MOL         0.0000
      2 C2         -5.7543    0.9134   -3.9292 C.ar      1 MOL         0.0000
      3 C3         -3.3499    0.5277   -3.9477 C.ar      1 MOL         0.0000
      4 C4          0.2425   -1.0462   -0.1627 C.ar      1 MOL         0.0000
      5 C5         -5.8928    0.1726   -2.7537 C.ar      1 MOL         0.0000
      6 C6          1.0932   -1.7097    0.7217 C.ar      1 MOL         0.0000
      7 C7         -3.4914   -0.2072   -2.7808 C.ar      1 MOL         0.0000
      8 C8         -0.3020   -1.7261   -1.2528 C.ar      1 MOL         0.0000
      9 C9          0.0112   -3.0685   -1.4676 C.ar      1 MOL         0.0000
     10 C10        -4.7568   -0.3843   -2.1860 C.ar      1 MOL         0.0000
     11 C11         1.3955   -3.0559    0.5152 C.ar      1 MOL         0.0000
     12 C12         0.8723   -3.7291   -0.5910 C.ar      1 MOL         0.0000
     13 C13        -2.5003   -0.9022   -1.9625 C.2       1 MOL         0.0000
     14 C14        -3.2197   -1.5291   -0.8133 C.2       1 MOL         0.0000
     15 C15        -1.1927   -0.9978   -2.1480 C.2       1 MOL         0.0000
     16 C16        -0.5548   -3.7929   -2.6264 C.2       1 MOL         0.0000
     17 C17         2.0405   -5.5508    4.4148 C.2       1 MOL         0.0000
     18 C18        -4.7002   -1.2108   -0.9271 C.3       1 MOL         0.0000
     19 C19         2.2907   -5.5081   -0.1269 C.3       1 MOL         0.0000
     20 C20         2.1777   -5.0885    1.3327 C.3       1 MOL         0.0000
     21 C21         3.2756   -5.1582    3.5956 C.3       1 MOL         0.0000
     22 C22         3.3286   -5.6428    2.1594 C.3       1 MOL         0.0000
     23 N1         -2.7162   -2.2307    0.1400 N.2       1 MOL         0.0000
     24 O1         -1.6769   -4.4004   -2.4804 O.co2     1 MOL         0.0000
     25 O2          1.6860   -4.7457    5.3189 O.co2     1 MOL         0.0000
     26 O3          0.0989   -3.7856   -3.7321 O.co2     1 MOL         0.0000
     27 O4          1.5143   -6.6470    4.0661 O.co2     1 MOL         0.0000
     28 O5          1.1574   -5.0406   -0.8656 O.3       1 MOL         0.0000
     29 O6          2.2195   -3.6582    1.4292 O.3       1 MOL         0.0000
     30 O7         -1.3367   -2.3277   -0.0612 O.3       1 MOL         0.0000
     31 H1         -4.4077    1.6698   -5.4355 H         1 MOL         0.0000
     32 H2         -6.6311    1.3585   -4.3924 H         1 MOL         0.0000
     33 H3         -2.3822    0.6716   -4.4165 H         1 MOL         0.0000
     34 H4          0.0101    0.0011    0.0160 H         1 MOL         0.0000
     35 H5         -6.8689    0.0401   -2.2992 H         1 MOL         0.0000
     36 H6          1.5048   -1.1756    1.5737 H         1 MOL         0.0000
     37 H7         -0.7374   -0.4957   -2.9838 H         1 MOL         0.0000
     38 H8         -5.0255   -0.6359   -0.0558 H         1 MOL         0.0000
     39 H9         -5.2729   -2.1363   -1.0299 H         1 MOL         0.0000
     40 H10         3.1996   -5.1118   -0.5977 H         1 MOL         0.0000
     41 H11         2.3116   -6.5993   -0.2155 H         1 MOL         0.0000
     42 H12         1.2265   -5.4302    1.7622 H         1 MOL         0.0000
     43 H13         4.1389   -5.5833    4.1229 H         1 MOL         0.0000
     44 H14         3.3842   -4.0669    3.6296 H         1 MOL         0.0000
     45 H15         3.3008   -6.7293    2.0967 H         1 MOL         0.0000
     46 H16         4.2524   -5.3047    1.6905 H         1 MOL         0.0000
     47 H17        -1.0642   -2.8669    0.7006 H         1 MOL         0.0000
@<TRIPOS>BOND
     1    1    2 ar
     2    1    3 ar
     3    2    5 ar
     4    3    7 ar
     5    4    6 ar
     6    4    8 ar
     7    5   10 ar
     8    6   11 ar
     9    7   10 ar
    10    7   13 1
    11    8    9 ar
    12    8   15 1
    13    9   12 ar
    14    9   16 1
    15   10   18 1
    16   11   12 ar
    17   11   29 1
    18   12   28 1
    19   13   14 1
    20   13   15 2
    21   14   18 1
    22   14   23 2
    23   16   24 1
    24   16   26 2
    25   17   21 1
    26   17   25 1
    27   17   27 2
    28   19   20 1
    29   19   28 1
    30   20   22 1
    31   20   29 1
    32   21   22 1
    33   23   30 1
    34    1   31 1
    35    2   32 1
    36    3   33 1
    37    4   34 1
    38    5   35 1
    39    6   36 1
    40   15   37 1
    41   18   38 1
    42   18   39 1
    43   19   40 1
    44   19   41 1
    45   20   42 1
    46   21   43 1
    47   21   44 1
    48   22   45 1
    49   22   46 1
    50   30   47 1
