AVX38779_0
  -OEChem-04011314593D

 70 72  0     1  0  0  0  0  0999 V2000
    4.9869    0.8849   -2.1715 C   0  0  0  0  0  0  0  0  0  0  0  0
    5.4925   -0.3829   -1.8844 C   0  0  0  0  0  0  0  0  0  0  0  0
    4.2369    1.5697   -1.2153 C   0  0  0  0  0  0  0  0  0  0  0  0
    5.2481   -0.9661   -0.6411 C   0  0  0  0  0  0  0  0  0  0  0  0
   -0.1342   -2.7316    1.8471 C   0  0  0  0  0  0  0  0  0  0  0  0
   -1.0876   -3.7451    1.7464 C   0  0  0  0  0  0  0  0  0  0  0  0
    3.9924    0.9865    0.0280 C   0  0  0  0  0  0  0  0  0  0  0  0
    0.9782   -3.5729   -0.1279 C   0  0  0  0  0  0  0  0  0  0  0  0
    4.4980   -0.2814    0.3151 C   0  0  0  0  0  0  0  0  0  0  0  0
    0.9003   -2.6490    0.9145 C   0  0  0  0  0  0  0  0  0  0  0  0
   -1.0023   -4.6776    0.7122 C   0  0  0  0  0  0  0  0  0  0  0  0
    0.0173   -4.5783   -0.2372 C   0  0  0  0  0  0  0  0  0  0  0  0
    4.9356   -2.8887    4.5707 C   0  0  0  0  0  0  0  0  0  0  0  0
    4.3721   -3.2715    3.4197 C   0  0  0  0  0  0  0  0  0  0  0  0
    3.2056    1.7231    1.0079 C   0  0  0  0  0  0  0  0  0  0  0  0
    2.0697   -3.4764   -1.1187 C   0  0  0  0  0  0  0  0  0  0  0  0
   -4.4983   -9.1761    0.8235 C   0  0  0  0  0  0  0  0  0  0  0  0
   -1.0650   -6.1927   -1.5070 C   0  0  0  0  0  0  0  0  0  0  0  0
   -1.5828   -6.7443   -0.1852 C   0  0  2  0  0  0  0  0  0  0  0  0
    0.7428    4.6385   -0.2624 C   0  0  0  0  0  0  0  0  0  0  0  0
    0.2474    1.8604    2.4111 C   0  0  0  0  0  0  0  0  0  0  0  0
    4.2499   -0.9325    1.6439 C   0  0  0  0  0  0  0  0  0  0  0  0
    1.9102   -1.5569    1.0567 C   0  0  0  0  0  0  0  0  0  0  0  0
    3.0773   -2.7334    2.9064 C   0  0  0  0  0  0  0  0  0  0  0  0
   -3.2848   -8.2425    0.9052 C   0  0  0  0  0  0  0  0  0  0  0  0
   -2.8130   -7.6156   -0.3927 C   0  0  0  0  0  0  0  0  0  0  0  0
    0.0305    3.6673    0.6702 C   0  0  0  0  0  0  0  0  0  0  0  0
    1.0046    2.8157    1.4945 C   0  0  2  0  0  0  0  0  0  0  0  0
    1.8999    2.0665    0.6425 N   0  0  0  0  0  0  0  0  0  0  0  0
    3.2198   -2.0313    1.5800 N   0  3  2  0  0  0  0  0  0  0  0  0
    1.8813   -2.7660   -2.1731 O   0  5  0  0  0  0  0  0  0  0  0  0
   -4.8850   -9.6921    1.9078 O   0  5  0  0  0  0  0  0  0  0  0  0
    3.7007    2.0388    2.1031 O   0  0  0  0  0  0  0  0  0  0  0  0
    3.1659   -4.1068   -0.8885 O   0  0  0  0  0  0  0  0  0  0  0  0
   -4.9764   -9.3039   -0.3405 O   0  0  0  0  0  0  0  0  0  0  0  0
    0.1349   -5.4426   -1.2936 O   0  0  0  0  0  0  0  0  0  0  0  0
   -1.9553   -5.6612    0.6781 O   0  0  0  0  0  0  0  0  0  0  0  0
    5.1771    1.3396   -3.1395 H   0  0  0  0  0  0  0  0  0  0  0  0
    6.0762   -0.9157   -2.6294 H   0  0  0  0  0  0  0  0  0  0  0  0
    3.8475    2.5567   -1.4516 H   0  0  0  0  0  0  0  0  0  0  0  0
    5.6470   -1.9542   -0.4274 H   0  0  0  0  0  0  0  0  0  0  0  0
   -0.2036   -2.0133    2.6598 H   0  0  0  0  0  0  0  0  0  0  0  0
   -1.8833   -3.8086    2.4835 H   0  0  0  0  0  0  0  0  0  0  0  0
    5.8816   -3.3140    4.8876 H   0  0  0  0  0  0  0  0  0  0  0  0
    4.4692   -2.1497    5.2126 H   0  0  0  0  0  0  0  0  0  0  0  0
    4.8838   -4.0120    2.8103 H   0  0  0  0  0  0  0  0  0  0  0  0
   -0.8234   -7.0066   -2.1988 H   0  0  0  0  0  0  0  0  0  0  0  0
   -1.8000   -5.5393   -1.9944 H   0  0  0  0  0  0  0  0  0  0  0  0
   -0.8046   -7.3303    0.3225 H   0  0  0  0  0  0  0  0  0  0  0  0
    1.3999    4.1126   -0.9618 H   0  0  0  0  0  0  0  0  0  0  0  0
    0.0105    5.2013   -0.8499 H   0  0  0  0  0  0  0  0  0  0  0  0
    1.3451    5.3556    0.3044 H   0  0  0  0  0  0  0  0  0  0  0  0
   -0.3944    1.1879    1.8328 H   0  0  0  0  0  0  0  0  0  0  0  0
    0.9366    1.2500    3.0055 H   0  0  0  0  0  0  0  0  0  0  0  0
   -0.3876    2.4149    3.1109 H   0  0  0  0  0  0  0  0  0  0  0  0
    5.1658   -1.3828    2.0413 H   0  0  0  0  0  0  0  0  0  0  0  0
    3.8891   -0.2054    2.3794 H   0  0  0  0  0  0  0  0  0  0  0  0
    2.1180   -1.0736    0.0935 H   0  0  0  0  0  0  0  0  0  0  0  0
    1.5642   -0.7774    1.7476 H   0  0  0  0  0  0  0  0  0  0  0  0
    2.6725   -1.9941    3.6043 H   0  0  0  0  0  0  0  0  0  0  0  0
    2.3292   -3.5185    2.7575 H   0  0  0  0  0  0  0  0  0  0  0  0
   -2.4602   -8.8483    1.3017 H   0  0  0  0  0  0  0  0  0  0  0  0
   -3.4948   -7.4616    1.6469 H   0  0  0  0  0  0  0  0  0  0  0  0
   -3.5881   -7.0062   -0.8541 H   0  0  0  0  0  0  0  0  0  0  0  0
   -2.5368   -8.3970   -1.1001 H   0  0  0  0  0  0  0  0  0  0  0  0
   -0.6111    4.2460    1.3458 H   0  0  0  0  0  0  0  0  0  0  0  0
   -0.6279    3.0220    0.0754 H   0  0  0  0  0  0  0  0  0  0  0  0
    1.6337    3.4701    2.1090 H   0  0  0  0  0  0  0  0  0  0  0  0
    1.5678    1.8383   -0.2888 H   0  0  0  0  0  0  0  0  0  0  0  0
    3.5872   -2.7334    0.9171 H   0  0  0  0  0  0  0  0  0  0  0  0
  1  2  1  0  0  0  0
  1  3  2  0  0  0  0
  2  4  2  0  0  0  0
  3  7  1  0  0  0  0
  4  9  1  0  0  0  0
  5  6  2  0  0  0  0
  5 10  1  0  0  0  0
  6 11  1  0  0  0  0
  7  9  2  0  0  0  0
  7 15  1  0  0  0  0
  8 10  2  0  0  0  0
  8 12  1  0  0  0  0
  8 16  1  0  0  0  0
  9 22  1  0  0  0  0
 10 23  1  0  0  0  0
 11 12  2  0  0  0  0
 11 37  1  0  0  0  0
 12 36  1  0  0  0  0
 13 14  2  0  0  0  0
 14 24  1  0  0  0  0
 15 29  1  0  0  0  0
 15 33  2  0  0  0  0
 16 31  1  0  0  0  0
 16 34  2  0  0  0  0
 17 25  1  0  0  0  0
 17 32  1  0  0  0  0
 17 35  2  0  0  0  0
 18 19  1  0  0  0  0
 18 36  1  0  0  0  0
 19 26  1  0  0  0  0
 19 37  1  0  0  0  0
 20 27  1  0  0  0  0
 21 28  1  0  0  0  0
 22 30  1  0  0  0  0
 23 30  1  0  0  0  0
 24 30  1  0  0  0  0
 25 26  1  0  0  0  0
 27 28  1  0  0  0  0
 28 29  1  0  0  0  0
  1 38  1  0  0  0  0
  2 39  1  0  0  0  0
  3 40  1  0  0  0  0
  4 41  1  0  0  0  0
  5 42  1  0  0  0  0
  6 43  1  0  0  0  0
 13 44  1  0  0  0  0
 13 45  1  0  0  0  0
 14 46  1  0  0  0  0
 18 47  1  0  0  0  0
 18 48  1  0  0  0  0
 19 49  1  0  0  0  0
 20 50  1  0  0  0  0
 20 51  1  0  0  0  0
 20 52  1  0  0  0  0
 21 53  1  0  0  0  0
 21 54  1  0  0  0  0
 21 55  1  0  0  0  0
 22 56  1  0  0  0  0
 22 57  1  0  0  0  0
 23 58  1  0  0  0  0
 23 59  1  0  0  0  0
 24 60  1  0  0  0  0
 24 61  1  0  0  0  0
 25 62  1  0  0  0  0
 25 63  1  0  0  0  0
 26 64  1  0  0  0  0
 26 65  1  0  0  0  0
 27 66  1  0  0  0  0
 27 67  1  0  0  0  0
 28 68  1  0  0  0  0
 29 69  1  0  0  0  0
 30 70  1  0  0  0  0
M  CHG  3  30   1  31  -1  32  -1
M  END
$$$$
