@<TRIPOS>MOLECULE
AVX38782_2
   71    74     0     0     0
SMALL
NO_CHARGES

@<TRIPOS>ATOM
      1 C1         -5.5248   -1.4756    1.1849 C.ar      1 MOL         0.0000
      2 C2         -4.6933   -1.3749    0.0696 C.ar      1 MOL         0.0000
      3 C3         -5.6059   -2.6776    1.8881 C.ar      1 MOL         0.0000
      4 C4         -3.9430   -2.4761   -0.3427 C.ar      1 MOL         0.0000
      5 C5         -2.5364   -8.3452   -0.2752 C.ar      1 MOL         0.0000
      6 C6         -3.1461   -9.5572    0.0493 C.ar      1 MOL         0.0000
      7 C7         -4.8556   -3.7788    1.4759 C.ar      1 MOL         0.0000
      8 C8         -1.8596   -8.0612    2.0286 C.ar      1 MOL         0.0000
      9 C9         -4.0241   -3.6781    0.3605 C.ar      1 MOL         0.0000
     10 C10        -1.8895   -7.6009    0.7120 C.ar      1 MOL         0.0000
     11 C11        -3.1044  -10.0249    1.3631 C.ar      1 MOL         0.0000
     12 C12        -2.4804   -9.2669    2.3563 C.ar      1 MOL         0.0000
     13 C13         0.7944   -3.3768   -0.6046 C.2       1 MOL         0.0000
     14 C14        -0.5239   -3.4737   -0.4002 C.2       1 MOL         0.0000
     15 C15        -4.9597   -5.0220    2.2278 C.2       1 MOL         0.0000
     16 C16        -1.1817   -7.2658    3.0725 C.2       1 MOL         0.0000
     17 C17        -2.9032  -14.6750    1.7936 C.2       1 MOL         0.0000
     18 C18        -8.2467   -9.6402    1.2191 C.3       1 MOL         0.0000
     19 C19        -8.2094   -8.0978    1.2075 C.3       1 MOL         0.0000
     20 C20        -7.0092   -9.5869    2.1393 C.3       1 MOL         0.0000
     21 C21        -3.3738  -10.6983    3.9517 C.3       1 MOL         0.0000
     22 C22        -6.7021   -8.2083    1.5180 C.3       1 MOL         0.0000
     23 C23        -3.3017  -11.7776    2.8796 C.3       1 MOL         0.0000
     24 C24        -3.2066   -4.8468   -0.1053 C.3       1 MOL         0.0000
     25 C25        -1.2398   -6.3108    0.3292 C.3       1 MOL         0.0000
     26 C26        -1.1378   -3.8883    0.8963 C.3       1 MOL         0.0000
     27 C27        -4.2355  -13.9783    2.0944 C.3       1 MOL         0.0000
     28 C28        -6.1870   -7.1913    2.4787 C.3       1 MOL         0.0000
     29 C29        -4.2319  -12.9388    3.1988 C.3       1 MOL         0.0000
     30 N1         -5.9446   -5.9277    1.8204 N.am      1 MOL         0.0000
     31 N2         -2.0067   -5.1134    0.7673 N.4       1 MOL         0.0000
     32 O1          0.0661   -7.4797    3.2946 O.co2     1 MOL         0.0000
     33 O2         -2.7228  -15.0544    0.6041 O.co2     1 MOL         0.0000
     34 O3         -4.2107   -5.2362    3.1959 O.2       1 MOL         0.0000
     35 O4         -1.8656   -6.3904    3.7190 O.co2     1 MOL         0.0000
     36 O5         -2.1323  -14.7722    2.7916 O.co2     1 MOL         0.0000
     37 O6         -2.4342   -9.6563    3.6689 O.3       1 MOL         0.0000
     38 O7         -3.7024  -11.2314    1.6157 O.3       1 MOL         0.0000
     39 H1         -6.1092   -0.6182    1.5065 H         1 MOL         0.0000
     40 H2         -4.6307   -0.4388   -0.4777 H         1 MOL         0.0000
     41 H3         -6.2584   -2.7436    2.7550 H         1 MOL         0.0000
     42 H4         -3.2979   -2.3869   -1.2128 H         1 MOL         0.0000
     43 H5         -2.5671   -7.9911   -1.3024 H         1 MOL         0.0000
     44 H6         -3.6389  -10.1353   -0.7276 H         1 MOL         0.0000
     45 H7          1.1795   -3.0653   -1.5694 H         1 MOL         0.0000
     46 H8          1.5083   -3.6033    0.1795 H         1 MOL         0.0000
     47 H9         -1.1969   -3.2301   -1.2182 H         1 MOL         0.0000
     48 H10        -9.1392  -10.0621    1.6954 H         1 MOL         0.0000
     49 H11        -8.0980  -10.1259    0.2514 H         1 MOL         0.0000
     50 H12        -8.4264   -7.6603    0.2255 H         1 MOL         0.0000
     51 H13        -8.8299   -7.6023    1.9589 H         1 MOL         0.0000
     52 H14        -7.2147   -9.6060    3.2128 H         1 MOL         0.0000
     53 H15        -6.2575  -10.3511    1.9094 H         1 MOL         0.0000
     54 H16        -4.3749  -10.2533    4.0177 H         1 MOL         0.0000
     55 H17        -3.1197  -11.1106    4.9339 H         1 MOL         0.0000
     56 H18        -6.0666   -8.2541    0.6269 H         1 MOL         0.0000
     57 H19        -2.2747  -12.1538    2.7766 H         1 MOL         0.0000
     58 H20        -3.8004   -5.7672   -0.1134 H         1 MOL         0.0000
     59 H21        -2.8278   -4.6851   -1.1202 H         1 MOL         0.0000
     60 H22        -0.2398   -6.2175    0.7716 H         1 MOL         0.0000
     61 H23        -1.1269   -6.2255   -0.7592 H         1 MOL         0.0000
     62 H24        -1.7829   -3.0922    1.2802 H         1 MOL         0.0000
     63 H25        -0.3866   -4.1253    1.6564 H         1 MOL         0.0000
     64 H26        -4.9355  -14.7717    2.3854 H         1 MOL         0.0000
     65 H27        -4.6171  -13.5389    1.1642 H         1 MOL         0.0000
     66 H28        -5.2428   -7.5243    2.9200 H         1 MOL         0.0000
     67 H29        -6.9088   -7.0156    3.2818 H         1 MOL         0.0000
     68 H30        -3.9309  -13.3639    4.1548 H         1 MOL         0.0000
     69 H31        -5.2329  -12.5247    3.3178 H         1 MOL         0.0000
     70 H32        -6.5706   -5.6744    1.0629 H         1 MOL         0.0000
     71 H33        -2.3747   -5.3072    1.7131 H         1 MOL         0.0000
@<TRIPOS>BOND
     1    1    2 ar
     2    1    3 ar
     3    2    4 ar
     4    3    7 ar
     5    4    9 ar
     6    5    6 ar
     7    5   10 ar
     8    6   11 ar
     9    7    9 ar
    10    7   15 1
    11    8   10 ar
    12    8   12 ar
    13    8   16 1
    14    9   24 1
    15   10   25 1
    16   11   12 ar
    17   11   38 1
    18   12   37 1
    19   13   14 2
    20   14   26 1
    21   15   30 am
    22   15   34 2
    23   16   32 1
    24   16   35 2
    25   17   27 1
    26   17   33 1
    27   17   36 2
    28   18   19 1
    29   18   20 1
    30   19   22 1
    31   20   22 1
    32   21   23 1
    33   21   37 1
    34   22   28 1
    35   23   29 1
    36   23   38 1
    37   24   31 1
    38   25   31 1
    39   26   31 1
    40   27   29 1
    41   28   30 1
    42    1   39 1
    43    2   40 1
    44    3   41 1
    45    4   42 1
    46    5   43 1
    47    6   44 1
    48   13   45 1
    49   13   46 1
    50   14   47 1
    51   18   48 1
    52   18   49 1
    53   19   50 1
    54   19   51 1
    55   20   52 1
    56   20   53 1
    57   21   54 1
    58   21   55 1
    59   22   56 1
    60   23   57 1
    61   24   58 1
    62   24   59 1
    63   25   60 1
    64   25   61 1
    65   26   62 1
    66   26   63 1
    67   27   64 1
    68   27   65 1
    69   28   66 1
    70   28   67 1
    71   29   68 1
    72   29   69 1
    73   30   70 1
    74   31   71 1
