AVX38742_2
  -OEChem-04011314573D

 47 50  0     1  0  0  0  0  0999 V2000
    3.1918    2.5159    2.7165 C   0  0  0  0  0  0  0  0  0  0  0  0
    3.3076    2.4866    4.1150 C   0  0  0  0  0  0  0  0  0  0  0  0
    2.8077    1.3753    2.0066 C   0  0  0  0  0  0  0  0  0  0  0  0
    0.9303    0.0616   -0.5572 C   0  0  0  0  0  0  0  0  0  0  0  0
    3.0418    1.3157    4.8279 C   0  0  0  0  0  0  0  0  0  0  0  0
    1.0149    0.8804   -1.6836 C   0  0  0  0  0  0  0  0  0  0  0  0
    2.5445    0.2148    2.7178 C   0  0  0  0  0  0  0  0  0  0  0  0
    2.0374   -0.6827   -0.1485 C   0  0  0  0  0  0  0  0  0  0  0  0
    3.2357   -0.6019   -0.8584 C   0  0  0  0  0  0  0  0  0  0  0  0
    2.6609    0.1845    4.1220 C   0  0  0  0  0  0  0  0  0  0  0  0
    2.2088    0.9508   -2.4020 C   0  0  0  0  0  0  0  0  0  0  0  0
    3.3251    0.2272   -1.9768 C   0  0  0  0  0  0  0  0  0  0  0  0
    2.1318   -1.1115    2.2645 C   0  0  0  0  0  0  0  0  0  0  0  0
    1.9952   -1.9813    3.4711 C   0  0  0  0  0  0  0  0  0  0  0  0
    1.9041   -1.5313    1.0296 C   0  0  0  0  0  0  0  0  0  0  0  0
    4.4163   -1.3809   -0.4252 C   0  0  0  0  0  0  0  0  0  0  0  0
    2.2209    3.7367   -7.3732 C   0  0  0  0  0  0  0  0  0  0  0  0
    2.3339   -1.1656    4.7064 C   0  0  0  0  0  0  0  0  0  0  0  0
    4.6158    1.3962   -3.5122 C   0  0  0  0  0  0  0  0  0  0  0  0
    3.3513    1.4892   -4.3561 C   0  0  2  0  0  0  0  0  0  0  0  0
    2.2296    2.6638   -6.2779 C   0  0  0  0  0  0  0  0  0  0  0  0
    3.4455    2.6178   -5.3724 C   0  0  0  0  0  0  0  0  0  0  0  0
    1.6514   -3.2201    3.5114 N   0  0  0  0  0  0  0  0  0  0  0  0
    5.2337   -0.8425    0.4064 O   0  5  0  0  0  0  0  0  0  0  0  0
    1.2054    3.7691   -8.1208 O   0  5  0  0  0  0  0  0  0  0  0  0
    4.5765   -2.5641   -0.8983 O   0  0  0  0  0  0  0  0  0  0  0  0
    3.2465    4.4770   -7.3817 O   0  0  0  0  0  0  0  0  0  0  0  0
    4.5336    0.2805   -2.6198 O   0  0  0  0  0  0  0  0  0  0  0  0
    2.2239    1.7559   -3.5104 O   0  0  0  0  0  0  0  0  0  0  0  0
    1.6527   -3.6379    4.8449 O   0  0  0  0  0  0  0  0  0  0  0  0
    3.4033    3.4373    2.1808 H   0  0  0  0  0  0  0  0  0  0  0  0
    3.6070    3.3857    4.6474 H   0  0  0  0  0  0  0  0  0  0  0  0
    2.7216    1.4130    0.9259 H   0  0  0  0  0  0  0  0  0  0  0  0
   -0.0090    0.0123   -0.0112 H   0  0  0  0  0  0  0  0  0  0  0  0
    3.1339    1.2972    5.9087 H   0  0  0  0  0  0  0  0  0  0  0  0
    0.1456    1.4501   -2.0006 H   0  0  0  0  0  0  0  0  0  0  0  0
    1.5754   -2.5426    0.8650 H   0  0  0  0  0  0  0  0  0  0  0  0
    3.1981   -1.6015    5.2151 H   0  0  0  0  0  0  0  0  0  0  0  0
    1.4656   -1.1154    5.3688 H   0  0  0  0  0  0  0  0  0  0  0  0
    5.4953    1.2443   -4.1467 H   0  0  0  0  0  0  0  0  0  0  0  0
    4.7789    2.3040   -2.9173 H   0  0  0  0  0  0  0  0  0  0  0  0
    3.1653    0.5436   -4.8823 H   0  0  0  0  0  0  0  0  0  0  0  0
    2.1630    1.6988   -6.7960 H   0  0  0  0  0  0  0  0  0  0  0  0
    1.3168    2.7699   -5.6785 H   0  0  0  0  0  0  0  0  0  0  0  0
    3.5840    3.5525   -4.8318 H   0  0  0  0  0  0  0  0  0  0  0  0
    4.3410    2.4400   -5.9672 H   0  0  0  0  0  0  0  0  0  0  0  0
    1.3842   -4.5685    4.7598 H   0  0  0  0  0  0  0  0  0  0  0  0
  1  2  1  0  0  0  0
  1  3  2  0  0  0  0
  2  5  2  0  0  0  0
  3  7  1  0  0  0  0
  4  6  2  0  0  0  0
  4  8  1  0  0  0  0
  5 10  1  0  0  0  0
  6 11  1  0  0  0  0
  7 10  2  0  0  0  0
  7 13  1  0  0  0  0
  8  9  2  0  0  0  0
  8 15  1  0  0  0  0
  9 12  1  0  0  0  0
  9 16  1  0  0  0  0
 10 18  1  0  0  0  0
 11 12  2  0  0  0  0
 11 29  1  0  0  0  0
 12 28  1  0  0  0  0
 13 14  1  0  0  0  0
 13 15  2  0  0  0  0
 14 18  1  0  0  0  0
 14 23  2  0  0  0  0
 16 24  1  0  0  0  0
 16 26  2  0  0  0  0
 17 21  1  0  0  0  0
 17 25  1  0  0  0  0
 17 27  2  0  0  0  0
 19 20  1  0  0  0  0
 19 28  1  0  0  0  0
 20 22  1  0  0  0  0
 20 29  1  0  0  0  0
 21 22  1  0  0  0  0
 23 30  1  0  0  0  0
  1 31  1  0  0  0  0
  2 32  1  0  0  0  0
  3 33  1  0  0  0  0
  4 34  1  0  0  0  0
  5 35  1  0  0  0  0
  6 36  1  0  0  0  0
 15 37  1  0  0  0  0
 18 38  1  0  0  0  0
 18 39  1  0  0  0  0
 19 40  1  0  0  0  0
 19 41  1  0  0  0  0
 20 42  1  0  0  0  0
 21 43  1  0  0  0  0
 21 44  1  0  0  0  0
 22 45  1  0  0  0  0
 22 46  1  0  0  0  0
 30 47  1  0  0  0  0
M  CHG  2  24  -1  25  -1
M  END
$$$$
