@<TRIPOS>MOLECULE
AVX38741_1
   65    69     0     0     0
SMALL
NO_CHARGES

@<TRIPOS>ATOM
      1 C1          4.0924    0.8181   -4.4391 C.ar      1 MOL         0.0000
      2 C2         -0.9129    0.8768    2.8543 C.ar      1 MOL         0.0000
      3 C3         -1.8109    1.5847    2.0580 C.ar      1 MOL         0.0000
      4 C4          3.0575   -0.0370   -4.8176 C.ar      1 MOL         0.0000
      5 C5          4.5680    0.7999   -3.1279 C.ar      1 MOL         0.0000
      6 C6          0.1514    0.1930    2.2689 C.ar      1 MOL         0.0000
      7 C7         -1.6448    1.6171    0.6725 C.ar      1 MOL         0.0000
      8 C8          2.4981   -0.9103   -3.8848 C.ar      1 MOL         0.0000
      9 C9          4.0085   -0.0734   -2.1952 C.ar      1 MOL         0.0000
     10 C10        -2.6694   -2.7504   -3.4888 C.ar      1 MOL         0.0000
     11 C11        -2.8146   -3.6421   -4.5519 C.ar      1 MOL         0.0000
     12 C12         0.3121    0.2117    0.8783 C.ar      1 MOL         0.0000
     13 C13        -1.9022   -1.0421   -5.0181 C.ar      1 MOL         0.0000
     14 C14        -0.5790    0.9389    0.0662 C.ar      1 MOL         0.0000
     15 C15         2.9735   -0.9285   -2.5736 C.ar      1 MOL         0.0000
     16 C16        -2.2086   -1.4541   -3.7209 C.ar      1 MOL         0.0000
     17 C17        -2.4951   -3.2350   -5.8475 C.ar      1 MOL         0.0000
     18 C18        -2.0603   -1.9289   -6.0834 C.ar      1 MOL         0.0000
     19 C19         1.4688   -0.5195    0.3002 C.2       1 MOL         0.0000
     20 C20        -1.4234    0.3343   -5.2609 C.2       1 MOL         0.0000
     21 C21        -2.4258   -7.1565   -9.9812 C.2       1 MOL         0.0000
     22 C22        -0.4028    1.0007   -1.4264 C.3       1 MOL         0.0000
     23 C23        -2.2826   -2.3110   -8.3625 C.3       1 MOL         0.0000
     24 C24        -0.0811   -1.5198   -1.4068 C.3       1 MOL         0.0000
     25 C25        -1.9648   -3.7672   -8.0495 C.3       1 MOL         0.0000
     26 C26         2.3717   -1.8681   -1.5691 C.3       1 MOL         0.0000
     27 C27        -2.0549   -0.5234   -2.5542 C.3       1 MOL         0.0000
     28 C28        -2.0430   -6.1312   -8.9074 C.3       1 MOL         0.0000
     29 C29        -2.4332   -4.6886   -9.1663 C.3       1 MOL         0.0000
     30 N1          1.2500   -1.2662   -0.8644 N.am      1 MOL         0.0000
     31 N2         -0.6200   -0.3174   -2.1491 N.4       1 MOL         0.0000
     32 O1         -2.2897    1.2521   -5.5040 O.co2     1 MOL         0.0000
     33 O2         -2.0988   -8.3541   -9.7574 O.co2     1 MOL         0.0000
     34 O3          2.5525   -0.4087    0.8716 O.2       1 MOL         0.0000
     35 O4         -0.1590    0.5611   -5.2200 O.co2     1 MOL         0.0000
     36 O5         -3.0445   -6.6657  -10.9693 O.co2     1 MOL         0.0000
     37 O6         -1.7634   -1.4599   -7.3359 O.3       1 MOL         0.0000
     38 O7         -2.6387   -4.1616   -6.8464 O.3       1 MOL         0.0000
     39 H1          4.5288    1.4971   -5.1658 H         1 MOL         0.0000
     40 H2         -1.0430    0.8573    3.9324 H         1 MOL         0.0000
     41 H3         -2.6399    2.1159    2.5166 H         1 MOL         0.0000
     42 H4          2.6879   -0.0238   -5.8388 H         1 MOL         0.0000
     43 H5          5.3744    1.4648   -2.8332 H         1 MOL         0.0000
     44 H6          0.8393   -0.3577    2.9052 H         1 MOL         0.0000
     45 H7         -2.3530    2.1803    0.0696 H         1 MOL         0.0000
     46 H8          1.6919   -1.5729   -4.1886 H         1 MOL         0.0000
     47 H9          4.3853   -0.0805   -1.1758 H         1 MOL         0.0000
     48 H10        -2.9136   -3.0775   -2.4815 H         1 MOL         0.0000
     49 H11        -3.1635   -4.6532   -4.3604 H         1 MOL         0.0000
     50 H12        -1.0682    1.7394   -1.8886 H         1 MOL         0.0000
     51 H13         0.6193    1.3208   -1.6654 H         1 MOL         0.0000
     52 H14        -1.8174   -2.0067   -9.3061 H         1 MOL         0.0000
     53 H15        -3.3631   -2.1359   -8.4443 H         1 MOL         0.0000
     54 H16        -0.0527   -2.3560   -2.1139 H         1 MOL         0.0000
     55 H17        -0.7779   -1.7572   -0.5950 H         1 MOL         0.0000
     56 H18        -0.8859   -3.9045   -7.8945 H         1 MOL         0.0000
     57 H19         2.0120   -2.7792   -2.0596 H         1 MOL         0.0000
     58 H20         3.1124   -2.1718   -0.8219 H         1 MOL         0.0000
     59 H21        -2.4629    0.4673   -2.7815 H         1 MOL         0.0000
     60 H22        -2.5791   -0.9057   -1.6716 H         1 MOL         0.0000
     61 H23        -0.9496   -6.1708   -8.8241 H         1 MOL         0.0000
     62 H24        -2.4505   -6.4653   -7.9450 H         1 MOL         0.0000
     63 H25        -3.5103   -4.5729   -9.2741 H         1 MOL         0.0000
     64 H26        -1.9658   -4.3401  -10.0868 H         1 MOL         0.0000
     65 H27        -0.0826   -0.2516   -3.0240 H         1 MOL         0.0000
@<TRIPOS>BOND
     1    1    4 ar
     2    1    5 ar
     3    2    3 ar
     4    2    6 ar
     5    3    7 ar
     6    4    8 ar
     7    5    9 ar
     8    6   12 ar
     9    7   14 ar
    10    8   15 ar
    11    9   15 ar
    12   10   11 ar
    13   10   16 ar
    14   11   17 ar
    15   12   14 ar
    16   12   19 1
    17   13   16 ar
    18   13   18 ar
    19   13   20 1
    20   14   22 1
    21   15   26 1
    22   16   27 1
    23   17   18 ar
    24   17   38 1
    25   18   37 1
    26   19   30 am
    27   19   34 2
    28   20   32 1
    29   20   35 2
    30   21   28 1
    31   21   33 1
    32   21   36 2
    33   22   31 1
    34   23   25 1
    35   23   37 1
    36   24   30 1
    37   24   31 1
    38   25   29 1
    39   25   38 1
    40   26   30 1
    41   27   31 1
    42   28   29 1
    43    1   39 1
    44    2   40 1
    45    3   41 1
    46    4   42 1
    47    5   43 1
    48    6   44 1
    49    7   45 1
    50    8   46 1
    51    9   47 1
    52   10   48 1
    53   11   49 1
    54   22   50 1
    55   22   51 1
    56   23   52 1
    57   23   53 1
    58   24   54 1
    59   24   55 1
    60   25   56 1
    61   26   57 1
    62   26   58 1
    63   27   59 1
    64   27   60 1
    65   28   61 1
    66   28   62 1
    67   29   63 1
    68   29   64 1
    69   31   65 1
