@<TRIPOS>MOLECULE
AVX38788_3
   67    70     0     0     0
SMALL
NO_CHARGES

@<TRIPOS>ATOM
      1 C1          4.9098   -8.0740   -0.0639 C.ar      1 MOL         0.0000
      2 C2          5.9025   -7.1705    0.3151 C.ar      1 MOL         0.0000
      3 C3          3.5649   -7.7414    0.0988 C.ar      1 MOL         0.0000
      4 C4          5.5504   -5.9343    0.8569 C.ar      1 MOL         0.0000
      5 C5          4.1382   -0.4122   -1.1384 C.ar      1 MOL         0.0000
      6 C6          3.7122    0.4688   -2.1326 C.ar      1 MOL         0.0000
      7 C7          3.2129   -6.5052    0.6405 C.ar      1 MOL         0.0000
      8 C8          3.3956   -2.2870   -2.4725 C.ar      1 MOL         0.0000
      9 C9          4.2056   -5.6016    1.0196 C.ar      1 MOL         0.0000
     10 C10         3.9850   -1.7884   -1.3105 C.ar      1 MOL         0.0000
     11 C11         3.1357   -0.0300   -3.3010 C.ar      1 MOL         0.0000
     12 C12         2.9576   -1.4059   -3.4615 C.ar      1 MOL         0.0000
     13 C13         1.8011   -6.1836    0.8001 C.2       1 MOL         0.0000
     14 C14         3.2268   -3.7442   -2.6467 C.2       1 MOL         0.0000
     15 C15         4.0178    2.4650   -7.1541 C.2       1 MOL         0.0000
     16 C16        -2.5824   -8.3698   -1.1703 C.3       1 MOL         0.0000
     17 C17        -2.6886   -6.9253   -0.6383 C.3       1 MOL         0.0000
     18 C18        -1.0618   -8.1346   -1.2839 C.3       1 MOL         0.0000
     19 C19         1.6612   -0.9769   -5.3397 C.3       1 MOL         0.0000
     20 C20        -1.2218   -7.0677   -0.1810 C.3       1 MOL         0.0000
     21 C21         2.5168    0.2695   -5.5233 C.3       1 MOL         0.0000
     22 C22         2.4782   -2.2273    1.2052 C.3       1 MOL         0.0000
     23 C23         3.8553   -4.2655    1.6054 C.3       1 MOL         0.0000
     24 C24         4.4590   -2.7048   -0.2296 C.3       1 MOL         0.0000
     25 C25         2.6239    2.5753   -6.5251 C.3       1 MOL         0.0000
     26 C26        -0.3886   -5.8458   -0.3687 C.3       1 MOL         0.0000
     27 C27         1.8210    1.2939   -6.4077 C.3       1 MOL         0.0000
     28 N1          1.0201   -6.1689   -0.3601 N.am      1 MOL         0.0000
     29 N2          3.3517   -3.2839    0.5781 N.4       1 MOL         0.0000
     30 O1          4.1720   -4.4093   -3.2092 O.co2     1 MOL         0.0000
     31 O2          4.8823    3.2925   -6.7548 O.co2     1 MOL         0.0000
     32 O3          1.3396   -5.9177    1.9228 O.2       1 MOL         0.0000
     33 O4          2.1411   -4.2912   -2.2296 O.co2     1 MOL         0.0000
     34 O5          4.1320    1.5324   -8.0009 O.co2     1 MOL         0.0000
     35 O6          2.3693   -1.9544   -4.5704 O.3       1 MOL         0.0000
     36 O7          2.7568    0.8832   -4.2495 O.3       1 MOL         0.0000
     37 H1          5.1834   -9.0368   -0.4860 H         1 MOL         0.0000
     38 H2          6.9495   -7.4302    0.1885 H         1 MOL         0.0000
     39 H3          2.8008   -8.4546   -0.1995 H         1 MOL         0.0000
     40 H4          6.3317   -5.2374    1.1485 H         1 MOL         0.0000
     41 H5          4.5930   -0.0162   -0.2341 H         1 MOL         0.0000
     42 H6          3.8447    1.5385   -1.9949 H         1 MOL         0.0000
     43 H7         -2.8621   -9.1369   -0.4392 H         1 MOL         0.0000
     44 H8         -3.1035   -8.5688   -2.1102 H         1 MOL         0.0000
     45 H9         -2.8340   -6.1764   -1.4261 H         1 MOL         0.0000
     46 H10        -3.4329   -6.7616    0.1454 H         1 MOL         0.0000
     47 H11        -0.4294   -8.9943   -1.0466 H         1 MOL         0.0000
     48 H12        -0.7518   -7.7243   -2.2523 H         1 MOL         0.0000
     49 H13         0.7159   -0.7530   -4.8291 H         1 MOL         0.0000
     50 H14         1.4253   -1.4307   -6.3082 H         1 MOL         0.0000
     51 H15        -1.1091   -7.4592    0.8359 H         1 MOL         0.0000
     52 H16         3.4891    0.0110   -5.9642 H         1 MOL         0.0000
     53 H17         3.0980   -1.6444    1.8889 H         1 MOL         0.0000
     54 H18         2.0829   -1.6013    0.4030 H         1 MOL         0.0000
     55 H19         1.6731   -2.7341    1.7406 H         1 MOL         0.0000
     56 H20         3.0696   -4.3590    2.3628 H         1 MOL         0.0000
     57 H21         4.7256   -3.8025    2.0828 H         1 MOL         0.0000
     58 H22         5.0203   -3.5539   -0.6399 H         1 MOL         0.0000
     59 H23         5.1190   -2.1851    0.4767 H         1 MOL         0.0000
     60 H24         2.0567    3.2672   -7.1604 H         1 MOL         0.0000
     61 H25         2.7220    3.0503   -5.5409 H         1 MOL         0.0000
     62 H26        -0.5717   -5.1293    0.4376 H         1 MOL         0.0000
     63 H27        -0.6144   -5.3653   -1.3252 H         1 MOL         0.0000
     64 H28         1.6403    0.8382   -7.3798 H         1 MOL         0.0000
     65 H29         0.8536    1.5060   -5.9531 H         1 MOL         0.0000
     66 H30         1.4617   -6.3319   -1.2591 H         1 MOL         0.0000
     67 H31         2.7427   -3.8193   -0.0621 H         1 MOL         0.0000
@<TRIPOS>BOND
     1    1    2 ar
     2    1    3 ar
     3    2    4 ar
     4    3    7 ar
     5    4    9 ar
     6    5    6 ar
     7    5   10 ar
     8    6   11 ar
     9    7    9 ar
    10    7   13 1
    11    8   10 ar
    12    8   12 ar
    13    8   14 1
    14    9   23 1
    15   10   24 1
    16   11   12 ar
    17   11   36 1
    18   12   35 1
    19   13   28 am
    20   13   32 2
    21   14   30 1
    22   14   33 2
    23   15   25 1
    24   15   31 1
    25   15   34 2
    26   16   17 1
    27   16   18 1
    28   17   20 1
    29   18   20 1
    30   19   21 1
    31   19   35 1
    32   20   26 1
    33   21   27 1
    34   21   36 1
    35   22   29 1
    36   23   29 1
    37   24   29 1
    38   25   27 1
    39   26   28 1
    40    1   37 1
    41    2   38 1
    42    3   39 1
    43    4   40 1
    44    5   41 1
    45    6   42 1
    46   16   43 1
    47   16   44 1
    48   17   45 1
    49   17   46 1
    50   18   47 1
    51   18   48 1
    52   19   49 1
    53   19   50 1
    54   20   51 1
    55   21   52 1
    56   22   53 1
    57   22   54 1
    58   22   55 1
    59   23   56 1
    60   23   57 1
    61   24   58 1
    62   24   59 1
    63   25   60 1
    64   25   61 1
    65   26   62 1
    66   26   63 1
    67   27   64 1
    68   27   65 1
    69   28   66 1
    70   29   67 1
