AVX38784_2
  -OEChem-04011315003D

 66 68  0     1  0  0  0  0  0999 V2000
    7.8446   -2.2153    3.6688 C   0  0  0  0  0  0  0  0  0  0  0  0
    7.7894   -1.6561    2.3922 C   0  0  0  0  0  0  0  0  0  0  0  0
    6.6785   -2.3491    4.4227 C   0  0  0  0  0  0  0  0  0  0  0  0
    6.5682   -1.2306    1.8694 C   0  0  0  0  0  0  0  0  0  0  0  0
    0.7254    0.2021    2.3555 C   0  0  0  0  0  0  0  0  0  0  0  0
   -0.1548    0.6082    3.3587 C   0  0  0  0  0  0  0  0  0  0  0  0
    5.4574   -1.9235    3.8998 C   0  0  0  0  0  0  0  0  0  0  0  0
    0.2950   -2.1126    2.9057 C   0  0  0  0  0  0  0  0  0  0  0  0
    5.4022   -1.3643    2.6232 C   0  0  0  0  0  0  0  0  0  0  0  0
    0.9542   -1.1562    2.1330 C   0  0  0  0  0  0  0  0  0  0  0  0
   -0.8037   -0.3475    4.1410 C   0  0  0  0  0  0  0  0  0  0  0  0
   -0.5959   -1.7074    3.8999 C   0  0  0  0  0  0  0  0  0  0  0  0
    4.2553   -2.0742    4.7086 C   0  0  0  0  0  0  0  0  0  0  0  0
    0.5328   -3.5499    2.6608 C   0  0  0  0  0  0  0  0  0  0  0  0
   -3.7903    1.4221    8.6598 C   0  0  0  0  0  0  0  0  0  0  0  0
   -2.3510   -2.1886    5.3414 C   0  0  0  0  0  0  0  0  0  0  0  0
   -1.9702   -0.9089    6.0743 C   0  0  2  0  0  0  0  0  0  0  0  0
    1.9217   -1.6746    8.7331 C   0  0  0  0  0  0  0  0  0  0  0  0
    2.2187    0.4001    6.5630 C   0  0  0  0  0  0  0  0  0  0  0  0
    3.9388   -2.9292    0.6058 C   0  0  0  0  0  0  0  0  0  0  0  0
    4.1025   -0.8977    2.0366 C   0  0  0  0  0  0  0  0  0  0  0  0
    1.9102   -1.5568    1.0567 C   0  0  0  0  0  0  0  0  0  0  0  0
   -2.7256    0.8288    7.7296 C   0  0  0  0  0  0  0  0  0  0  0  0
   -3.1217   -0.3948    6.9259 C   0  0  0  0  0  0  0  0  0  0  0  0
    3.1243   -1.5973    7.8011 C   0  0  0  0  0  0  0  0  0  0  0  0
    2.7715   -1.0148    6.4265 C   0  0  2  0  0  0  0  0  0  0  0  0
    3.9188   -1.0069    5.5476 N   0  0  0  0  0  0  0  0  0  0  0  0
    3.2198   -2.0313    1.5800 N   0  3  1  0  0  0  0  0  0  0  0  0
   -0.2186   -4.1617    1.8164 O   0  5  0  0  0  0  0  0  0  0  0  0
   -3.4530    2.4406    9.3234 O   0  5  0  0  0  0  0  0  0  0  0  0
    3.5875   -3.1207    4.6539 O   0  0  0  0  0  0  0  0  0  0  0  0
    1.4818   -4.1335    3.3017 O   0  0  0  0  0  0  0  0  0  0  0  0
   -4.8982    0.8123    8.6349 O   0  0  0  0  0  0  0  0  0  0  0  0
   -1.2284   -2.6928    4.6111 O   0  0  0  0  0  0  0  0  0  0  0  0
   -1.6399    0.1130    5.1236 O   0  0  0  0  0  0  0  0  0  0  0  0
    8.7953   -2.5471    4.0764 H   0  0  0  0  0  0  0  0  0  0  0  0
    8.6977   -1.5520    1.8058 H   0  0  0  0  0  0  0  0  0  0  0  0
    6.7349   -2.7855    5.4167 H   0  0  0  0  0  0  0  0  0  0  0  0
    6.5362   -0.7967    0.8734 H   0  0  0  0  0  0  0  0  0  0  0  0
    1.2325    0.9530    1.7552 H   0  0  0  0  0  0  0  0  0  0  0  0
   -0.3184    1.6682    3.5324 H   0  0  0  0  0  0  0  0  0  0  0  0
   -2.6558   -2.9654    6.0505 H   0  0  0  0  0  0  0  0  0  0  0  0
   -3.1779   -2.0271    4.6379 H   0  0  0  0  0  0  0  0  0  0  0  0
   -1.0920   -1.0742    6.7133 H   0  0  0  0  0  0  0  0  0  0  0  0
    1.1231   -2.2887    8.3058 H   0  0  0  0  0  0  0  0  0  0  0  0
    2.2142   -2.1228    9.6880 H   0  0  0  0  0  0  0  0  0  0  0  0
    1.5191   -0.6772    8.9366 H   0  0  0  0  0  0  0  0  0  0  0  0
    2.9481    1.0618    7.0412 H   0  0  0  0  0  0  0  0  0  0  0  0
    1.9618    0.8225    5.5851 H   0  0  0  0  0  0  0  0  0  0  0  0
    1.3081    0.4043    7.1724 H   0  0  0  0  0  0  0  0  0  0  0  0
    4.1510   -2.3457   -0.2920 H   0  0  0  0  0  0  0  0  0  0  0  0
    4.8614   -3.2674    1.0814 H   0  0  0  0  0  0  0  0  0  0  0  0
    3.2819   -3.7714    0.3802 H   0  0  0  0  0  0  0  0  0  0  0  0
    3.5229   -0.3219    2.7661 H   0  0  0  0  0  0  0  0  0  0  0  0
    4.2697   -0.2579    1.1634 H   0  0  0  0  0  0  0  0  0  0  0  0
    1.5069   -2.3734    0.4444 H   0  0  0  0  0  0  0  0  0  0  0  0
    2.1307   -0.7189    0.3831 H   0  0  0  0  0  0  0  0  0  0  0  0
   -1.8822    0.5467    8.3724 H   0  0  0  0  0  0  0  0  0  0  0  0
   -2.3675    1.6205    7.0595 H   0  0  0  0  0  0  0  0  0  0  0  0
   -3.9668   -0.1933    6.2701 H   0  0  0  0  0  0  0  0  0  0  0  0
   -3.4069   -1.2019    7.6002 H   0  0  0  0  0  0  0  0  0  0  0  0
    3.8898   -0.9727    8.2774 H   0  0  0  0  0  0  0  0  0  0  0  0
    3.5520   -2.6014    7.6894 H   0  0  0  0  0  0  0  0  0  0  0  0
    2.0143   -1.6445    5.9451 H   0  0  0  0  0  0  0  0  0  0  0  0
    4.5344   -0.2019    5.5995 H   0  0  0  0  0  0  0  0  0  0  0  0
    3.0316   -2.6060    2.4177 H   0  0  0  0  0  0  0  0  0  0  0  0
  1  2  1  0  0  0  0
  1  3  2  0  0  0  0
  2  4  2  0  0  0  0
  3  7  1  0  0  0  0
  4  9  1  0  0  0  0
  5  6  2  0  0  0  0
  5 10  1  0  0  0  0
  6 11  1  0  0  0  0
  7  9  2  0  0  0  0
  7 13  1  0  0  0  0
  8 10  2  0  0  0  0
  8 12  1  0  0  0  0
  8 14  1  0  0  0  0
  9 21  1  0  0  0  0
 10 22  1  0  0  0  0
 11 12  2  0  0  0  0
 11 35  1  0  0  0  0
 12 34  1  0  0  0  0
 13 27  1  0  0  0  0
 13 31  2  0  0  0  0
 14 29  1  0  0  0  0
 14 32  2  0  0  0  0
 15 23  1  0  0  0  0
 15 30  1  0  0  0  0
 15 33  2  0  0  0  0
 16 17  1  0  0  0  0
 16 34  1  0  0  0  0
 17 24  1  0  0  0  0
 17 35  1  0  0  0  0
 18 25  1  0  0  0  0
 19 26  1  0  0  0  0
 20 28  1  0  0  0  0
 21 28  1  0  0  0  0
 22 28  1  0  0  0  0
 23 24  1  0  0  0  0
 25 26  1  0  0  0  0
 26 27  1  0  0  0  0
  1 36  1  0  0  0  0
  2 37  1  0  0  0  0
  3 38  1  0  0  0  0
  4 39  1  0  0  0  0
  5 40  1  0  0  0  0
  6 41  1  0  0  0  0
 16 42  1  0  0  0  0
 16 43  1  0  0  0  0
 17 44  1  0  0  0  0
 18 45  1  0  0  0  0
 18 46  1  0  0  0  0
 18 47  1  0  0  0  0
 19 48  1  0  0  0  0
 19 49  1  0  0  0  0
 19 50  1  0  0  0  0
 20 51  1  0  0  0  0
 20 52  1  0  0  0  0
 20 53  1  0  0  0  0
 21 54  1  0  0  0  0
 21 55  1  0  0  0  0
 22 56  1  0  0  0  0
 22 57  1  0  0  0  0
 23 58  1  0  0  0  0
 23 59  1  0  0  0  0
 24 60  1  0  0  0  0
 24 61  1  0  0  0  0
 25 62  1  0  0  0  0
 25 63  1  0  0  0  0
 26 64  1  0  0  0  0
 27 65  1  0  0  0  0
 28 66  1  0  0  0  0
M  CHG  3  28   1  29  -1  30  -1
M  END
$$$$
