@<TRIPOS>MOLECULE
AVX38781_2
   77    80     0     0     0
SMALL
NO_CHARGES

@<TRIPOS>ATOM
      1 C1         -3.0172   -5.1797   -2.9721 C.ar      1 MOL         0.0000
      2 C2         -2.0244   -4.3131   -3.4291 C.ar      1 MOL         0.0000
      3 C3         -2.6748   -6.4497   -2.5077 C.ar      1 MOL         0.0000
      4 C4         -0.6892   -4.7164   -3.4217 C.ar      1 MOL         0.0000
      5 C5          3.6635   -8.8703   -2.9443 C.ar      1 MOL         0.0000
      6 C6          3.8042  -10.2507   -3.0882 C.ar      1 MOL         0.0000
      7 C7         -1.3395   -6.8530   -2.5004 C.ar      1 MOL         0.0000
      8 C8          2.9946   -9.1719   -0.6405 C.ar      1 MOL         0.0000
      9 C9         -0.3467   -5.9864   -2.9574 C.ar      1 MOL         0.0000
     10 C10         3.2644   -8.3313   -1.7207 C.ar      1 MOL         0.0000
     11 C11         3.5480  -11.0908   -2.0042 C.ar      1 MOL         0.0000
     12 C12         3.1224  -10.5534   -0.7874 C.ar      1 MOL         0.0000
     13 C13         3.2420   -3.1985   -1.0627 C.2       1 MOL         0.0000
     14 C14         2.2939   -3.9512   -1.6314 C.2       1 MOL         0.0000
     15 C15        -1.0098   -8.1847   -2.0109 C.2       1 MOL         0.0000
     16 C16         2.5634   -8.5979    0.6506 C.2       1 MOL         0.0000
     17 C17         6.2012  -14.9348   -1.8205 C.2       1 MOL         0.0000
     18 C18        -3.9206  -13.5571   -2.6797 C.3       1 MOL         0.0000
     19 C19        -4.2457  -12.1293   -3.1073 C.3       1 MOL         0.0000
     20 C20        -2.9346  -13.5834   -1.5159 C.3       1 MOL         0.0000
     21 C21        -2.9812  -11.3351   -3.4267 C.3       1 MOL         0.0000
     22 C22        -1.6680  -12.7916   -1.8325 C.3       1 MOL         0.0000
     23 C23         2.6546  -12.7045   -0.0485 C.3       1 MOL         0.0000
     24 C24        -1.9905  -11.3518   -2.2547 C.3       1 MOL         0.0000
     25 C25         3.7844  -13.1578   -0.9636 C.3       1 MOL         0.0000
     26 C26         1.0971   -6.3944   -2.9612 C.3       1 MOL         0.0000
     27 C27         3.1311   -6.8481   -1.5982 C.3       1 MOL         0.0000
     28 C28         1.5578   -5.0400   -0.9227 C.3       1 MOL         0.0000
     29 C29         4.7424  -15.0842   -2.2684 C.3       1 MOL         0.0000
     30 C30        -0.7130  -10.5970   -2.6175 C.3       1 MOL         0.0000
     31 C31         3.6747  -14.6407   -1.2868 C.3       1 MOL         0.0000
     32 N1         -0.9979   -9.2200   -2.9513 N.am      1 MOL         0.0000
     33 N2          1.7176   -6.3836   -1.5874 N.4       1 MOL         0.0000
     34 O1          3.4621   -8.2854    1.5147 O.co2     1 MOL         0.0000
     35 O2          7.0504  -14.7273   -2.7300 O.co2     1 MOL         0.0000
     36 O3         -0.7741   -8.3712   -0.8051 O.2       1 MOL         0.0000
     37 O4          1.3061   -8.4334    0.8605 O.co2     1 MOL         0.0000
     38 O5          6.3716  -15.0271   -0.5706 O.co2     1 MOL         0.0000
     39 O6          2.8245  -11.3275    0.3029 O.3       1 MOL         0.0000
     40 O7          3.7240  -12.4352   -2.2008 O.3       1 MOL         0.0000
     41 H1         -4.0573   -4.8661   -2.9775 H         1 MOL         0.0000
     42 H2         -2.2917   -3.3244   -3.7908 H         1 MOL         0.0000
     43 H3         -3.4579   -7.1162   -2.1553 H         1 MOL         0.0000
     44 H4          0.0767   -4.0332   -3.7795 H         1 MOL         0.0000
     45 H5          3.8718   -8.2219   -3.7915 H         1 MOL         0.0000
     46 H6          4.1252  -10.6613   -4.0416 H         1 MOL         0.0000
     47 H7          3.7380   -2.4184   -1.6299 H         1 MOL         0.0000
     48 H8          3.5382   -3.3438   -0.0299 H         1 MOL         0.0000
     49 H9          2.0304   -3.7610   -2.6686 H         1 MOL         0.0000
     50 H10        -4.8428  -14.0752   -2.3933 H         1 MOL         0.0000
     51 H11        -3.4956  -14.1044   -3.5300 H         1 MOL         0.0000
     52 H12        -4.9010  -12.1485   -3.9856 H         1 MOL         0.0000
     53 H13        -4.8003  -11.6252   -2.3062 H         1 MOL         0.0000
     54 H14        -3.4130  -13.1641   -0.6222 H         1 MOL         0.0000
     55 H15        -2.6718  -14.6209   -1.2800 H         1 MOL         0.0000
     56 H16        -2.5075  -11.7575   -4.3222 H         1 MOL         0.0000
     57 H17        -3.2550  -10.3016   -3.6707 H         1 MOL         0.0000
     58 H18        -1.0151  -12.7860   -0.9515 H         1 MOL         0.0000
     59 H19        -1.1159  -13.3007   -2.6331 H         1 MOL         0.0000
     60 H20         1.6718  -12.8221   -0.5224 H         1 MOL         0.0000
     61 H21         2.6546  -13.2821    0.8820 H         1 MOL         0.0000
     62 H22        -2.4434  -10.8300   -1.4046 H         1 MOL         0.0000
     63 H23         4.7611  -12.9589   -0.5016 H         1 MOL         0.0000
     64 H24         1.2207   -7.4093   -3.3541 H         1 MOL         0.0000
     65 H25         1.6969   -5.7206   -3.5826 H         1 MOL         0.0000
     66 H26         3.5858   -6.4788   -0.6701 H         1 MOL         0.0000
     67 H27         3.6211   -6.3305   -2.4328 H         1 MOL         0.0000
     68 H28         0.4845   -4.8265   -0.9138 H         1 MOL         0.0000
     69 H29         1.8962   -5.1682    0.1104 H         1 MOL         0.0000
     70 H30         4.5917  -16.1533   -2.4645 H         1 MOL         0.0000
     71 H31         4.6160  -14.5616   -3.2248 H         1 MOL         0.0000
     72 H32        -0.2287  -11.0572   -3.4840 H         1 MOL         0.0000
     73 H33        -0.0103  -10.5981   -1.7791 H         1 MOL         0.0000
     74 H34         3.7259  -15.1978   -0.3529 H         1 MOL         0.0000
     75 H35         2.6874  -14.8028   -1.7187 H         1 MOL         0.0000
     76 H36        -1.2598   -9.0226   -3.9116 H         1 MOL         0.0000
     77 H37         1.1732   -7.0532   -1.0194 H         1 MOL         0.0000
@<TRIPOS>BOND
     1    1    2 ar
     2    1    3 ar
     3    2    4 ar
     4    3    7 ar
     5    4    9 ar
     6    5    6 ar
     7    5   10 ar
     8    6   11 ar
     9    7    9 ar
    10    7   15 1
    11    8   10 ar
    12    8   12 ar
    13    8   16 1
    14    9   26 1
    15   10   27 1
    16   11   12 ar
    17   11   40 1
    18   12   39 1
    19   13   14 2
    20   14   28 1
    21   15   32 am
    22   15   36 2
    23   16   34 1
    24   16   37 2
    25   17   29 1
    26   17   35 1
    27   17   38 2
    28   18   19 1
    29   18   20 1
    30   19   21 1
    31   20   22 1
    32   21   24 1
    33   22   24 1
    34   23   25 1
    35   23   39 1
    36   24   30 1
    37   25   31 1
    38   25   40 1
    39   26   33 1
    40   27   33 1
    41   28   33 1
    42   29   31 1
    43   30   32 1
    44    1   41 1
    45    2   42 1
    46    3   43 1
    47    4   44 1
    48    5   45 1
    49    6   46 1
    50   13   47 1
    51   13   48 1
    52   14   49 1
    53   18   50 1
    54   18   51 1
    55   19   52 1
    56   19   53 1
    57   20   54 1
    58   20   55 1
    59   21   56 1
    60   21   57 1
    61   22   58 1
    62   22   59 1
    63   23   60 1
    64   23   61 1
    65   24   62 1
    66   25   63 1
    67   26   64 1
    68   26   65 1
    69   27   66 1
    70   27   67 1
    71   28   68 1
    72   28   69 1
    73   29   70 1
    74   29   71 1
    75   30   72 1
    76   30   73 1
    77   31   74 1
    78   31   75 1
    79   32   76 1
    80   33   77 1
