@<TRIPOS>MOLECULE
AVX38789_3
   64    67     0     0     0
SMALL
NO_CHARGES

@<TRIPOS>ATOM
      1 C1          0.1972   -6.1676   -2.6620 C.ar      1 MOL         0.0000
      2 C2         -0.9536   -5.7030   -2.0253 C.ar      1 MOL         0.0000
      3 C3          2.1230    1.3010   -6.1113 C.2       1 MOL         0.0000
      4 C4          0.7277   -5.4647   -3.7438 C.ar      1 MOL         0.0000
      5 C5         -1.5741   -4.5358   -2.4704 C.ar      1 MOL         0.0000
      6 C6          1.0985   -0.7214   -1.3057 C.ar      1 MOL         0.0000
      7 C7          2.1321    0.0505   -0.7747 C.ar      1 MOL         0.0000
      8 C8          1.9983    0.0921   -6.8368 C.2       1 MOL         0.0000
      9 C9          2.7140    0.9690   -4.9145 C.2       1 MOL         0.0000
     10 C10         0.1073   -4.2975   -4.1890 C.ar      1 MOL         0.0000
     11 C11        -0.3367    1.2237   -1.3569 C.ar      1 MOL         0.0000
     12 C12        -1.0436   -3.8330   -3.5523 C.ar      1 MOL         0.0000
     13 C13        -0.1324   -0.1345   -1.6013 C.ar      1 MOL         0.0000
     14 C14         1.9328    1.4118   -0.5432 C.ar      1 MOL         0.0000
     15 C15         0.6922    1.9935   -0.8137 C.ar      1 MOL         0.0000
     16 C16         2.5222   -0.8924   -6.0316 C.2       1 MOL         0.0000
     17 C17         0.6818   -3.5835   -5.3212 C.2       1 MOL         0.0000
     18 C18        -1.6444    1.8393   -1.6627 C.2       1 MOL         0.0000
     19 C19         5.7161    4.0885   -1.1522 C.2       1 MOL         0.0000
     20 C20         1.4018    3.9155    0.2793 C.3       1 MOL         0.0000
     21 C21         2.8049    3.5368   -0.1757 C.3       1 MOL         0.0000
     22 C22        -1.3292   -0.1769   -4.5299 C.3       1 MOL         0.0000
     23 C23        -1.7316   -2.5809   -4.0106 C.3       1 MOL         0.0000
     24 C24        -1.2157   -0.9880   -2.1764 C.3       1 MOL         0.0000
     25 C25         2.6919   -2.3746   -6.2004 C.3       1 MOL         0.0000
     26 C26         5.2662    3.7888    0.2825 C.3       1 MOL         0.0000
     27 C27         3.8664    4.2271    0.6682 C.3       1 MOL         0.0000
     28 N1          1.9932   -3.1189   -5.1774 N.am      1 MOL         0.0000
     29 N2         -1.0008   -1.3248   -3.6097 N.4       1 MOL         0.0000
     30 O1         -1.8304    2.3371   -2.8330 O.co2     1 MOL         0.0000
     31 O2          6.5437    3.2843   -1.6619 O.co2     1 MOL         0.0000
     32 O3          0.0107   -3.3902   -6.3491 O.2       1 MOL         0.0000
     33 O4         -2.5459    1.8537   -0.7467 O.co2     1 MOL         0.0000
     34 O5          5.1812    5.1166   -1.6590 O.co2     1 MOL         0.0000
     35 O6          2.9607   -0.3661   -4.8580 O.3       1 MOL         0.0000
     36 O7          0.4248    3.3162   -0.5780 O.3       1 MOL         0.0000
     37 O8          2.9916    2.1213   -0.0406 O.3       1 MOL         0.0000
     38 H1          0.6809   -7.0764   -2.3155 H         1 MOL         0.0000
     39 H2         -1.3664   -6.2509   -1.1831 H         1 MOL         0.0000
     40 H3          1.8197    2.2904   -6.4217 H         1 MOL         0.0000
     41 H4          1.6244   -5.8377   -4.2321 H         1 MOL         0.0000
     42 H5         -2.4700   -4.1822   -1.9670 H         1 MOL         0.0000
     43 H6          1.2639   -1.7798   -1.4899 H         1 MOL         0.0000
     44 H7          3.0906   -0.4124   -0.5569 H         1 MOL         0.0000
     45 H8          1.5780   -0.0415   -7.8234 H         1 MOL         0.0000
     46 H9          3.0096    1.5363   -4.0442 H         1 MOL         0.0000
     47 H10         1.2040    3.5916    1.3091 H         1 MOL         0.0000
     48 H11         1.2586    5.0002    0.2308 H         1 MOL         0.0000
     49 H12         2.9543    3.7995   -1.2319 H         1 MOL         0.0000
     50 H13        -2.3902    0.0512   -4.4137 H         1 MOL         0.0000
     51 H14        -0.7103    0.6735   -4.2374 H         1 MOL         0.0000
     52 H15        -1.1052   -0.4925   -5.5508 H         1 MOL         0.0000
     53 H16        -1.8237   -2.5565   -5.1017 H         1 MOL         0.0000
     54 H17        -2.7397   -2.5065   -3.5888 H         1 MOL         0.0000
     55 H18        -1.3007   -1.9434   -1.6429 H         1 MOL         0.0000
     56 H19        -2.1924   -0.4909   -2.1179 H         1 MOL         0.0000
     57 H20         2.3090   -2.6987   -7.1742 H         1 MOL         0.0000
     58 H21         3.7492   -2.6566   -6.1564 H         1 MOL         0.0000
     59 H22         5.9724    4.3125    0.9391 H         1 MOL         0.0000
     60 H23         5.3901    2.7147    0.4697 H         1 MOL         0.0000
     61 H24         3.7361    5.3032    0.5666 H         1 MOL         0.0000
     62 H25         3.6714    3.9637    1.7075 H         1 MOL         0.0000
     63 H26         2.4729   -3.2496   -4.2928 H         1 MOL         0.0000
     64 H27         0.0056   -1.5198   -3.7389 H         1 MOL         0.0000
@<TRIPOS>BOND
     1    1    2 ar
     2    1    4 ar
     3    2    5 ar
     4    3    8 1
     5    3    9 2
     6    4   10 ar
     7    5   12 ar
     8    6    7 ar
     9    6   13 ar
    10    7   14 ar
    11    8   16 2
    12    9   35 1
    13   10   12 ar
    14   10   17 1
    15   11   13 ar
    16   11   15 ar
    17   11   18 1
    18   12   23 1
    19   13   24 1
    20   14   15 ar
    21   14   37 1
    22   15   36 1
    23   16   25 1
    24   16   35 1
    25   17   28 am
    26   17   32 2
    27   18   30 1
    28   18   33 2
    29   19   26 1
    30   19   31 1
    31   19   34 2
    32   20   21 1
    33   20   36 1
    34   21   27 1
    35   21   37 1
    36   22   29 1
    37   23   29 1
    38   24   29 1
    39   25   28 1
    40   26   27 1
    41    1   38 1
    42    2   39 1
    43    3   40 1
    44    4   41 1
    45    5   42 1
    46    6   43 1
    47    7   44 1
    48    8   45 1
    49    9   46 1
    50   20   47 1
    51   20   48 1
    52   21   49 1
    53   22   50 1
    54   22   51 1
    55   22   52 1
    56   23   53 1
    57   23   54 1
    58   24   55 1
    59   24   56 1
    60   25   57 1
    61   25   58 1
    62   26   59 1
    63   26   60 1
    64   27   61 1
    65   27   62 1
    66   28   63 1
    67   29   64 1
