AVX38789_1
  -OEChem-04011315023D

 64 67  0     1  0  0  0  0  0999 V2000
    1.1315   -4.9555    5.1679 C   0  0  0  0  0  0  0  0  0  0  0  0
    0.5851   -5.0961    3.8923 C   0  0  0  0  0  0  0  0  0  0  0  0
    6.4315    1.2409    2.9544 C   0  0  0  0  0  0  0  0  0  0  0  0
    2.3769   -4.3486    5.3302 C   0  0  0  0  0  0  0  0  0  0  0  0
    1.2841   -4.6299    2.7789 C   0  0  0  0  0  0  0  0  0  0  0  0
    1.2325    0.1703    2.7127 C   0  0  0  0  0  0  0  0  0  0  0  0
    0.9418    1.4878    3.0676 C   0  0  0  0  0  0  0  0  0  0  0  0
    6.8225    0.0481    3.6081 C   0  0  0  0  0  0  0  0  0  0  0  0
    5.2153    1.5909    3.4933 C   0  0  0  0  0  0  0  0  0  0  0  0
    3.0759   -3.8823    4.2169 C   0  0  0  0  0  0  0  0  0  0  0  0
    1.7187    0.8794    0.4529 C   0  0  0  0  0  0  0  0  0  0  0  0
    2.5296   -4.0229    2.9412 C   0  0  0  0  0  0  0  0  0  0  0  0
    1.6150   -0.1343    1.4059 C   0  0  0  0  0  0  0  0  0  0  0  0
    1.0318    2.4998    2.1115 C   0  0  0  0  0  0  0  0  0  0  0  0
    1.4414    2.1990    0.8106 C   0  0  0  0  0  0  0  0  0  0  0  0
    5.8176   -0.2457    4.5002 C   0  0  0  0  0  0  0  0  0  0  0  0
    4.3747   -3.2531    4.4147 C   0  0  0  0  0  0  0  0  0  0  0  0
    2.1330    0.5542   -0.9273 C   0  0  0  0  0  0  0  0  0  0  0  0
   -0.8752    7.6936    3.4746 C   0  0  0  0  0  0  0  0  0  0  0  0
    1.6158    4.4745    0.3840 C   0  0  0  0  0  0  0  0  0  0  0  0
    0.4986    4.6512    1.4040 C   0  0  2  0  0  0  0  0  0  0  0  0
    4.3854   -1.5239    0.7699 C   0  0  0  0  0  0  0  0  0  0  0  0
    3.2598   -3.5311    1.7264 C   0  0  0  0  0  0  0  0  0  0  0  0
    1.9102   -1.5568    1.0567 C   0  0  0  0  0  0  0  0  0  0  0  0
    5.6137   -1.3585    5.4872 C   0  0  0  0  0  0  0  0  0  0  0  0
   -0.7035    6.2860    2.8914 C   0  0  0  0  0  0  0  0  0  0  0  0
    0.4600    6.0741    1.9420 C   0  0  0  0  0  0  0  0  0  0  0  0
    4.4077   -2.1075    5.2164 N   0  0  0  0  0  0  0  0  0  0  0  0
    3.2198   -2.0313    1.5800 N   0  3  2  0  0  0  0  0  0  0  0  0
    3.3855    0.5784   -1.2145 O   0  5  0  0  0  0  0  0  0  0  0  0
   -1.8445    7.8609    4.2645 O   0  5  0  0  0  0  0  0  0  0  0  0
    5.3891   -3.7192    3.8688 O   0  0  0  0  0  0  0  0  0  0  0  0
    1.2251    0.2598   -1.7880 O   0  0  0  0  0  0  0  0  0  0  0  0
    0.0007    8.5228    3.0936 O   0  0  0  0  0  0  0  0  0  0  0  0
    4.8341    0.6900    4.4365 O   0  0  0  0  0  0  0  0  0  0  0  0
    1.5811    3.1526   -0.1631 O   0  0  0  0  0  0  0  0  0  0  0  0
    0.7140    3.7699    2.5149 O   0  0  0  0  0  0  0  0  0  0  0  0
    0.5875   -5.3183    6.0354 H   0  0  0  0  0  0  0  0  0  0  0  0
   -0.3845   -5.5691    3.7665 H   0  0  0  0  0  0  0  0  0  0  0  0
    6.9685    1.7782    2.1861 H   0  0  0  0  0  0  0  0  0  0  0  0
    2.7924   -4.2459    6.3295 H   0  0  0  0  0  0  0  0  0  0  0  0
    0.8492   -4.7440    1.7895 H   0  0  0  0  0  0  0  0  0  0  0  0
    1.1531   -0.6135    3.4616 H   0  0  0  0  0  0  0  0  0  0  0  0
    0.6339    1.7141    4.0847 H   0  0  0  0  0  0  0  0  0  0  0  0
    7.7250   -0.5240    3.4466 H   0  0  0  0  0  0  0  0  0  0  0  0
    4.5295    2.4078    3.3228 H   0  0  0  0  0  0  0  0  0  0  0  0
    1.4958    5.1763   -0.4480 H   0  0  0  0  0  0  0  0  0  0  0  0
    2.6059    4.6399    0.8281 H   0  0  0  0  0  0  0  0  0  0  0  0
   -0.4754    4.4049    0.9596 H   0  0  0  0  0  0  0  0  0  0  0  0
    4.2862   -1.9202   -0.2423 H   0  0  0  0  0  0  0  0  0  0  0  0
    4.3430   -0.4330    0.7704 H   0  0  0  0  0  0  0  0  0  0  0  0
    5.3020   -1.8813    1.2432 H   0  0  0  0  0  0  0  0  0  0  0  0
    4.3170   -3.8159    1.7575 H   0  0  0  0  0  0  0  0  0  0  0  0
    2.8287   -3.9482    0.8099 H   0  0  0  0  0  0  0  0  0  0  0  0
    1.1498   -2.2364    1.4622 H   0  0  0  0  0  0  0  0  0  0  0  0
    1.9382   -1.7060   -0.0303 H   0  0  0  0  0  0  0  0  0  0  0  0
    6.4574   -2.0568    5.4615 H   0  0  0  0  0  0  0  0  0  0  0  0
    5.5442   -0.9700    6.5087 H   0  0  0  0  0  0  0  0  0  0  0  0
   -1.6272    6.0698    2.3400 H   0  0  0  0  0  0  0  0  0  0  0  0
   -0.6494    5.5693    3.7204 H   0  0  0  0  0  0  0  0  0  0  0  0
    1.4159    6.2840    2.4187 H   0  0  0  0  0  0  0  0  0  0  0  0
    0.3612    6.7387    1.0842 H   0  0  0  0  0  0  0  0  0  0  0  0
    3.5396   -1.7339    5.5859 H   0  0  0  0  0  0  0  0  0  0  0  0
    3.3376   -1.6429    2.5301 H   0  0  0  0  0  0  0  0  0  0  0  0
  1  2  1  0  0  0  0
  1  4  2  0  0  0  0
  2  5  2  0  0  0  0
  3  8  1  0  0  0  0
  3  9  2  0  0  0  0
  4 10  1  0  0  0  0
  5 12  1  0  0  0  0
  6  7  2  0  0  0  0
  6 13  1  0  0  0  0
  7 14  1  0  0  0  0
  8 16  2  0  0  0  0
  9 35  1  0  0  0  0
 10 12  2  0  0  0  0
 10 17  1  0  0  0  0
 11 13  2  0  0  0  0
 11 15  1  0  0  0  0
 11 18  1  0  0  0  0
 12 23  1  0  0  0  0
 13 24  1  0  0  0  0
 14 15  2  0  0  0  0
 14 37  1  0  0  0  0
 15 36  1  0  0  0  0
 16 25  1  0  0  0  0
 16 35  1  0  0  0  0
 17 28  1  0  0  0  0
 17 32  2  0  0  0  0
 18 30  1  0  0  0  0
 18 33  2  0  0  0  0
 19 26  1  0  0  0  0
 19 31  1  0  0  0  0
 19 34  2  0  0  0  0
 20 21  1  0  0  0  0
 20 36  1  0  0  0  0
 21 27  1  0  0  0  0
 21 37  1  0  0  0  0
 22 29  1  0  0  0  0
 23 29  1  0  0  0  0
 24 29  1  0  0  0  0
 25 28  1  0  0  0  0
 26 27  1  0  0  0  0
  1 38  1  0  0  0  0
  2 39  1  0  0  0  0
  3 40  1  0  0  0  0
  4 41  1  0  0  0  0
  5 42  1  0  0  0  0
  6 43  1  0  0  0  0
  7 44  1  0  0  0  0
  8 45  1  0  0  0  0
  9 46  1  0  0  0  0
 20 47  1  0  0  0  0
 20 48  1  0  0  0  0
 21 49  1  0  0  0  0
 22 50  1  0  0  0  0
 22 51  1  0  0  0  0
 22 52  1  0  0  0  0
 23 53  1  0  0  0  0
 23 54  1  0  0  0  0
 24 55  1  0  0  0  0
 24 56  1  0  0  0  0
 25 57  1  0  0  0  0
 25 58  1  0  0  0  0
 26 59  1  0  0  0  0
 26 60  1  0  0  0  0
 27 61  1  0  0  0  0
 27 62  1  0  0  0  0
 28 63  1  0  0  0  0
 29 64  1  0  0  0  0
M  CHG  3  29   1  30  -1  31  -1
M  END
$$$$
