AVX38742_6
  -OEChem-04011314573D

 47 50  0     1  0  0  0  0  0999 V2000
   -3.9708   -2.6406    1.0873 C   0  0  0  0  0  0  0  0  0  0  0  0
   -5.3073   -2.2744    0.8643 C   0  0  0  0  0  0  0  0  0  0  0  0
   -2.9623   -2.2361    0.2089 C   0  0  0  0  0  0  0  0  0  0  0  0
    0.2425   -1.0462   -0.1627 C   0  0  0  0  0  0  0  0  0  0  0  0
   -5.6585   -1.4978   -0.2417 C   0  0  0  0  0  0  0  0  0  0  0  0
    1.0932   -1.7097    0.7217 C   0  0  0  0  0  0  0  0  0  0  0  0
   -3.3149   -1.4651   -0.8879 C   0  0  0  0  0  0  0  0  0  0  0  0
   -0.3020   -1.7261   -1.2528 C   0  0  0  0  0  0  0  0  0  0  0  0
    0.0112   -3.0685   -1.4676 C   0  0  0  0  0  0  0  0  0  0  0  0
   -4.6567   -1.0973   -1.1128 C   0  0  0  0  0  0  0  0  0  0  0  0
    1.3955   -3.0559    0.5152 C   0  0  0  0  0  0  0  0  0  0  0  0
    0.8723   -3.7291   -0.5910 C   0  0  0  0  0  0  0  0  0  0  0  0
   -2.5003   -0.9022   -1.9625 C   0  0  0  0  0  0  0  0  0  0  0  0
   -3.4125   -0.1559   -2.8801 C   0  0  0  0  0  0  0  0  0  0  0  0
   -1.1927   -0.9978   -2.1480 C   0  0  0  0  0  0  0  0  0  0  0  0
   -0.5548   -3.7929   -2.6264 C   0  0  0  0  0  0  0  0  0  0  0  0
    2.0405   -5.5508    4.4148 C   0  0  0  0  0  0  0  0  0  0  0  0
   -4.8333   -0.2620   -2.3546 C   0  0  0  0  0  0  0  0  0  0  0  0
    2.2907   -5.5081   -0.1269 C   0  0  0  0  0  0  0  0  0  0  0  0
    2.1777   -5.0885    1.3327 C   0  0  1  0  0  0  0  0  0  0  0  0
    3.2756   -5.1582    3.5956 C   0  0  0  0  0  0  0  0  0  0  0  0
    3.3286   -5.6428    2.1594 C   0  0  0  0  0  0  0  0  0  0  0  0
   -3.0978    0.4858   -3.9495 N   0  0  0  0  0  0  0  0  0  0  0  0
   -1.6769   -4.4004   -2.4804 O   0  5  0  0  0  0  0  0  0  0  0  0
    1.6860   -4.7457    5.3189 O   0  5  0  0  0  0  0  0  0  0  0  0
    0.0989   -3.7856   -3.7321 O   0  0  0  0  0  0  0  0  0  0  0  0
    1.5143   -6.6470    4.0661 O   0  0  0  0  0  0  0  0  0  0  0  0
    1.1574   -5.0406   -0.8656 O   0  0  0  0  0  0  0  0  0  0  0  0
    2.2195   -3.6582    1.4292 O   0  0  0  0  0  0  0  0  0  0  0  0
   -4.2610    1.0335   -4.4970 O   0  0  0  0  0  0  0  0  0  0  0  0
   -3.7187   -3.2455    1.9542 H   0  0  0  0  0  0  0  0  0  0  0  0
   -6.0759   -2.5992    1.5610 H   0  0  0  0  0  0  0  0  0  0  0  0
   -1.9335   -2.5260    0.3944 H   0  0  0  0  0  0  0  0  0  0  0  0
    0.0101    0.0011    0.0160 H   0  0  0  0  0  0  0  0  0  0  0  0
   -6.6930   -1.2182   -0.4110 H   0  0  0  0  0  0  0  0  0  0  0  0
    1.5048   -1.1756    1.5737 H   0  0  0  0  0  0  0  0  0  0  0  0
   -0.7374   -0.4957   -2.9838 H   0  0  0  0  0  0  0  0  0  0  0  0
   -5.4656   -0.7669   -3.0901 H   0  0  0  0  0  0  0  0  0  0  0  0
   -5.2172    0.7335   -2.1161 H   0  0  0  0  0  0  0  0  0  0  0  0
    3.1996   -5.1118   -0.5977 H   0  0  0  0  0  0  0  0  0  0  0  0
    2.3116   -6.5993   -0.2155 H   0  0  0  0  0  0  0  0  0  0  0  0
    1.2265   -5.4302    1.7622 H   0  0  0  0  0  0  0  0  0  0  0  0
    4.1389   -5.5833    4.1229 H   0  0  0  0  0  0  0  0  0  0  0  0
    3.3842   -4.0669    3.6296 H   0  0  0  0  0  0  0  0  0  0  0  0
    3.3008   -6.7293    2.0967 H   0  0  0  0  0  0  0  0  0  0  0  0
    4.2524   -5.3047    1.6905 H   0  0  0  0  0  0  0  0  0  0  0  0
   -3.9136    1.4866   -5.2840 H   0  0  0  0  0  0  0  0  0  0  0  0
  1  2  1  0  0  0  0
  1  3  2  0  0  0  0
  2  5  2  0  0  0  0
  3  7  1  0  0  0  0
  4  6  2  0  0  0  0
  4  8  1  0  0  0  0
  5 10  1  0  0  0  0
  6 11  1  0  0  0  0
  7 10  2  0  0  0  0
  7 13  1  0  0  0  0
  8  9  2  0  0  0  0
  8 15  1  0  0  0  0
  9 12  1  0  0  0  0
  9 16  1  0  0  0  0
 10 18  1  0  0  0  0
 11 12  2  0  0  0  0
 11 29  1  0  0  0  0
 12 28  1  0  0  0  0
 13 14  1  0  0  0  0
 13 15  2  0  0  0  0
 14 18  1  0  0  0  0
 14 23  2  0  0  0  0
 16 24  1  0  0  0  0
 16 26  2  0  0  0  0
 17 21  1  0  0  0  0
 17 25  1  0  0  0  0
 17 27  2  0  0  0  0
 19 20  1  0  0  0  0
 19 28  1  0  0  0  0
 20 22  1  0  0  0  0
 20 29  1  0  0  0  0
 21 22  1  0  0  0  0
 23 30  1  0  0  0  0
  1 31  1  0  0  0  0
  2 32  1  0  0  0  0
  3 33  1  0  0  0  0
  4 34  1  0  0  0  0
  5 35  1  0  0  0  0
  6 36  1  0  0  0  0
 15 37  1  0  0  0  0
 18 38  1  0  0  0  0
 18 39  1  0  0  0  0
 19 40  1  0  0  0  0
 19 41  1  0  0  0  0
 20 42  1  0  0  0  0
 21 43  1  0  0  0  0
 21 44  1  0  0  0  0
 22 45  1  0  0  0  0
 22 46  1  0  0  0  0
 30 47  1  0  0  0  0
M  CHG  2  24  -1  25  -1
M  END
$$$$
