AVX38747_3
  -OEChem-04011314573D

 70 73  0     1  0  0  0  0  0999 V2000
    0.8227    2.4972    0.7613 C   0  0  0  0  0  0  0  0  0  0  0  0
   -0.4669    2.5713    0.2131 C   0  0  0  0  0  0  0  0  0  0  0  0
    1.5390    1.2996    0.7338 C   0  0  0  0  0  0  0  0  0  0  0  0
   -1.0594    1.4490   -0.3711 C   0  0  0  0  0  0  0  0  0  0  0  0
   -2.4841   -3.8463   -1.4786 C   0  0  0  0  0  0  0  0  0  0  0  0
   -2.8331   -4.8526   -2.3797 C   0  0  0  0  0  0  0  0  0  0  0  0
   -3.0748   -2.1672   -3.1149 C   0  0  0  0  0  0  0  0  0  0  0  0
    0.9389    0.1885    0.1645 C   0  0  0  0  0  0  0  0  0  0  0  0
   -0.3497    0.2584   -0.3845 C   0  0  0  0  0  0  0  0  0  0  0  0
   -2.5995   -2.5057   -1.8477 C   0  0  0  0  0  0  0  0  0  0  0  0
   -3.2953   -4.5149   -3.6520 C   0  0  0  0  0  0  0  0  0  0  0  0
   -3.4371   -3.1728   -4.0115 C   0  0  0  0  0  0  0  0  0  0  0  0
   -3.2044   -0.7465   -3.4986 C   0  0  0  0  0  0  0  0  0  0  0  0
    0.1175   -3.7717    1.5112 C   0  0  0  0  0  0  0  0  0  0  0  0
   -3.9889   -8.6805   -7.4778 C   0  0  0  0  0  0  0  0  0  0  0  0
    1.5227   -1.1831   -0.0012 C   0  0  0  0  0  0  0  0  0  0  0  0
   -4.5717   -3.8476   -5.9213 C   0  0  0  0  0  0  0  0  0  0  0  0
   -0.7357   -1.0684   -0.9834 C   0  0  1  0  0  0  0  0  0  0  0  0
    0.2556   -2.0223   -0.2630 C   0  0  2  0  0  0  0  0  0  0  0  0
   -3.7231   -5.1108   -5.8600 C   0  0  2  0  0  0  0  0  0  0  0  0
   -2.2053   -1.4449   -0.8546 C   0  0  0  0  0  0  0  0  0  0  0  0
   -0.6074   -4.0688    2.8138 C   0  0  0  0  0  0  0  0  0  0  0  0
   -3.4775   -7.4784   -6.6752 C   0  0  0  0  0  0  0  0  0  0  0  0
   -4.3569   -6.2429   -6.6550 C   0  0  0  0  0  0  0  0  0  0  0  0
   -0.2265   -5.4103    3.4384 C   0  0  0  0  0  0  0  0  0  0  0  0
   -0.9700   -5.6744    4.7525 C   0  0  0  0  0  0  0  0  0  0  0  0
   -0.5483   -7.0134    5.3654 C   0  0  0  0  0  0  0  0  0  0  0  0
   -1.2488   -7.3251    6.6822 C   0  0  0  0  0  0  0  0  0  0  0  0
   -0.2619   -2.5453    0.9850 N   0  0  0  0  0  0  0  0  0  0  0  0
   -2.7166   -7.3950    6.4910 N   0  3  0  0  0  0  0  0  0  0  0  0
   -4.3144   -0.1444   -3.2593 O   0  5  0  0  0  0  0  0  0  0  0  0
   -3.2520   -9.7044   -7.4882 O   0  5  0  0  0  0  0  0  0  0  0  0
   -2.2023   -0.1672   -4.0573 O   0  0  0  0  0  0  0  0  0  0  0  0
    0.9194   -4.5458    0.9959 O   0  0  0  0  0  0  0  0  0  0  0  0
   -5.1125   -8.4959   -8.0284 O   0  0  0  0  0  0  0  0  0  0  0  0
   -3.9165   -2.7778   -5.2326 O   0  0  0  0  0  0  0  0  0  0  0  0
   -3.6026   -5.5469   -4.4989 O   0  0  0  0  0  0  0  0  0  0  0  0
    1.2689    3.3828    1.2056 H   0  0  0  0  0  0  0  0  0  0  0  0
   -1.0066    3.5142    0.2372 H   0  0  0  0  0  0  0  0  0  0  0  0
    2.5395    1.2462    1.1494 H   0  0  0  0  0  0  0  0  0  0  0  0
   -2.0502    1.5210   -0.8061 H   0  0  0  0  0  0  0  0  0  0  0  0
   -2.1181   -4.1177   -0.4919 H   0  0  0  0  0  0  0  0  0  0  0  0
   -2.7295   -5.8940   -2.0877 H   0  0  0  0  0  0  0  0  0  0  0  0
    2.1846   -1.1908   -0.8739 H   0  0  0  0  0  0  0  0  0  0  0  0
    2.0709   -1.5091    0.8880 H   0  0  0  0  0  0  0  0  0  0  0  0
   -4.7174   -3.5283   -6.9587 H   0  0  0  0  0  0  0  0  0  0  0  0
   -5.5609   -3.9963   -5.4694 H   0  0  0  0  0  0  0  0  0  0  0  0
   -0.4715   -1.0323   -2.0492 H   0  0  0  0  0  0  0  0  0  0  0  0
    0.4802   -2.8981   -0.8811 H   0  0  0  0  0  0  0  0  0  0  0  0
   -2.7124   -4.9185   -6.2452 H   0  0  0  0  0  0  0  0  0  0  0  0
   -2.8281   -0.5541   -0.9974 H   0  0  0  0  0  0  0  0  0  0  0  0
   -2.4080   -1.7972    0.1636 H   0  0  0  0  0  0  0  0  0  0  0  0
   -0.4257   -3.2542    3.5245 H   0  0  0  0  0  0  0  0  0  0  0  0
   -1.6806   -4.0758    2.5869 H   0  0  0  0  0  0  0  0  0  0  0  0
   -2.5176   -7.1968   -7.1262 H   0  0  0  0  0  0  0  0  0  0  0  0
   -3.2662   -7.8078   -5.6501 H   0  0  0  0  0  0  0  0  0  0  0  0
   -5.3376   -6.4500   -6.2301 H   0  0  0  0  0  0  0  0  0  0  0  0
   -4.5033   -5.8782   -7.6713 H   0  0  0  0  0  0  0  0  0  0  0  0
   -0.4743   -6.2066    2.7257 H   0  0  0  0  0  0  0  0  0  0  0  0
    0.8561   -5.4583    3.6062 H   0  0  0  0  0  0  0  0  0  0  0  0
   -2.0506   -5.6821    4.5652 H   0  0  0  0  0  0  0  0  0  0  0  0
   -0.7703   -4.8614    5.4582 H   0  0  0  0  0  0  0  0  0  0  0  0
   -0.7805   -7.8187    4.6576 H   0  0  0  0  0  0  0  0  0  0  0  0
    0.5390   -7.0256    5.5110 H   0  0  0  0  0  0  0  0  0  0  0  0
   -0.9328   -8.2849    7.1012 H   0  0  0  0  0  0  0  0  0  0  0  0
   -1.0684   -6.5332    7.4151 H   0  0  0  0  0  0  0  0  0  0  0  0
   -0.9358   -1.9865    1.5002 H   0  0  0  0  0  0  0  0  0  0  0  0
   -2.9563   -7.4538    5.4949 H   0  0  0  0  0  0  0  0  0  0  0  0
   -3.1781   -6.5635    6.8771 H   0  0  0  0  0  0  0  0  0  0  0  0
   -3.1104   -8.2193    6.9587 H   0  0  0  0  0  0  0  0  0  0  0  0
  1  2  1  0  0  0  0
  1  3  2  0  0  0  0
  2  4  2  0  0  0  0
  3  8  1  0  0  0  0
  4  9  1  0  0  0  0
  5  6  2  0  0  0  0
  5 10  1  0  0  0  0
  6 11  1  0  0  0  0
  7 10  2  0  0  0  0
  7 12  1  0  0  0  0
  7 13  1  0  0  0  0
  8  9  2  0  0  0  0
  8 16  1  0  0  0  0
  9 18  1  0  0  0  0
 10 21  1  0  0  0  0
 11 12  2  0  0  0  0
 11 37  1  0  0  0  0
 12 36  1  0  0  0  0
 13 31  1  0  0  0  0
 13 33  2  0  0  0  0
 14 22  1  0  0  0  0
 14 29  1  0  0  0  0
 14 34  2  0  0  0  0
 15 23  1  0  0  0  0
 15 32  1  0  0  0  0
 15 35  2  0  0  0  0
 16 19  1  0  0  0  0
 17 20  1  0  0  0  0
 17 36  1  0  0  0  0
 18 19  1  0  0  0  0
 18 21  1  0  0  0  0
 19 29  1  0  0  0  0
 20 24  1  0  0  0  0
 20 37  1  0  0  0  0
 22 25  1  0  0  0  0
 23 24  1  0  0  0  0
 25 26  1  0  0  0  0
 26 27  1  0  0  0  0
 27 28  1  0  0  0  0
 28 30  1  0  0  0  0
  1 38  1  0  0  0  0
  2 39  1  0  0  0  0
  3 40  1  0  0  0  0
  4 41  1  0  0  0  0
  5 42  1  0  0  0  0
  6 43  1  0  0  0  0
 16 44  1  0  0  0  0
 16 45  1  0  0  0  0
 17 46  1  0  0  0  0
 17 47  1  0  0  0  0
 18 48  1  0  0  0  0
 19 49  1  0  0  0  0
 20 50  1  0  0  0  0
 21 51  1  0  0  0  0
 21 52  1  0  0  0  0
 22 53  1  0  0  0  0
 22 54  1  0  0  0  0
 23 55  1  0  0  0  0
 23 56  1  0  0  0  0
 24 57  1  0  0  0  0
 24 58  1  0  0  0  0
 25 59  1  0  0  0  0
 25 60  1  0  0  0  0
 26 61  1  0  0  0  0
 26 62  1  0  0  0  0
 27 63  1  0  0  0  0
 27 64  1  0  0  0  0
 28 65  1  0  0  0  0
 28 66  1  0  0  0  0
 29 67  1  0  0  0  0
 30 68  1  0  0  0  0
 30 69  1  0  0  0  0
 30 70  1  0  0  0  0
M  CHG  3  30   1  31  -1  32  -1
M  END
$$$$
