AVX38789_0
  -OEChem-04011315023D

 64 67  0     1  0  0  0  0  0999 V2000
    7.8446   -2.2153    3.6688 C   0  0  0  0  0  0  0  0  0  0  0  0
    7.7894   -1.6561    2.3922 C   0  0  0  0  0  0  0  0  0  0  0  0
    3.3820   -2.5352    9.7667 C   0  0  0  0  0  0  0  0  0  0  0  0
    6.6785   -2.3491    4.4227 C   0  0  0  0  0  0  0  0  0  0  0  0
    6.5682   -1.2306    1.8694 C   0  0  0  0  0  0  0  0  0  0  0  0
    0.7254    0.2021    2.3555 C   0  0  0  0  0  0  0  0  0  0  0  0
   -0.1548    0.6082    3.3587 C   0  0  0  0  0  0  0  0  0  0  0  0
    2.6626   -2.5817    8.5487 C   0  0  0  0  0  0  0  0  0  0  0  0
    4.2244   -1.4520    9.6717 C   0  0  0  0  0  0  0  0  0  0  0  0
    5.4574   -1.9235    3.8998 C   0  0  0  0  0  0  0  0  0  0  0  0
    0.2950   -2.1126    2.9057 C   0  0  0  0  0  0  0  0  0  0  0  0
    5.4022   -1.3643    2.6232 C   0  0  0  0  0  0  0  0  0  0  0  0
    0.9542   -1.1562    2.1330 C   0  0  0  0  0  0  0  0  0  0  0  0
   -0.8037   -0.3475    4.1410 C   0  0  0  0  0  0  0  0  0  0  0  0
   -0.5959   -1.7074    3.8999 C   0  0  0  0  0  0  0  0  0  0  0  0
    3.1165   -1.5234    7.7963 C   0  0  0  0  0  0  0  0  0  0  0  0
    4.2553   -2.0742    4.7086 C   0  0  0  0  0  0  0  0  0  0  0  0
    0.5328   -3.5499    2.6608 C   0  0  0  0  0  0  0  0  0  0  0  0
   -3.7903    1.4221    8.6598 C   0  0  0  0  0  0  0  0  0  0  0  0
   -2.3510   -2.1886    5.3414 C   0  0  0  0  0  0  0  0  0  0  0  0
   -1.9702   -0.9089    6.0743 C   0  0  2  0  0  0  0  0  0  0  0  0
    3.9388   -2.9292    0.6058 C   0  0  0  0  0  0  0  0  0  0  0  0
    4.1025   -0.8977    2.0366 C   0  0  0  0  0  0  0  0  0  0  0  0
    1.9102   -1.5568    1.0567 C   0  0  0  0  0  0  0  0  0  0  0  0
    2.7715   -1.0148    6.4265 C   0  0  0  0  0  0  0  0  0  0  0  0
   -2.7256    0.8288    7.7296 C   0  0  0  0  0  0  0  0  0  0  0  0
   -3.1217   -0.3948    6.9259 C   0  0  0  0  0  0  0  0  0  0  0  0
    3.9188   -1.0069    5.5476 N   0  0  0  0  0  0  0  0  0  0  0  0
    3.2198   -2.0313    1.5800 N   0  3  1  0  0  0  0  0  0  0  0  0
   -0.2186   -4.1617    1.8164 O   0  5  0  0  0  0  0  0  0  0  0  0
   -3.4530    2.4406    9.3234 O   0  5  0  0  0  0  0  0  0  0  0  0
    3.5875   -3.1207    4.6539 O   0  0  0  0  0  0  0  0  0  0  0  0
    1.4818   -4.1335    3.3017 O   0  0  0  0  0  0  0  0  0  0  0  0
   -4.8982    0.8123    8.6349 O   0  0  0  0  0  0  0  0  0  0  0  0
    4.0686   -0.8298    8.4737 O   0  0  0  0  0  0  0  0  0  0  0  0
   -1.2284   -2.6928    4.6111 O   0  0  0  0  0  0  0  0  0  0  0  0
   -1.6399    0.1130    5.1236 O   0  0  0  0  0  0  0  0  0  0  0  0
    8.7953   -2.5471    4.0764 H   0  0  0  0  0  0  0  0  0  0  0  0
    8.6977   -1.5520    1.8058 H   0  0  0  0  0  0  0  0  0  0  0  0
    3.2975   -3.2073   10.6083 H   0  0  0  0  0  0  0  0  0  0  0  0
    6.7349   -2.7855    5.4167 H   0  0  0  0  0  0  0  0  0  0  0  0
    6.5362   -0.7967    0.8734 H   0  0  0  0  0  0  0  0  0  0  0  0
    1.2325    0.9530    1.7552 H   0  0  0  0  0  0  0  0  0  0  0  0
   -0.3184    1.6682    3.5324 H   0  0  0  0  0  0  0  0  0  0  0  0
    1.9081   -3.2989    8.2584 H   0  0  0  0  0  0  0  0  0  0  0  0
    4.9567   -1.0144   10.3341 H   0  0  0  0  0  0  0  0  0  0  0  0
   -2.6558   -2.9654    6.0505 H   0  0  0  0  0  0  0  0  0  0  0  0
   -3.1779   -2.0271    4.6379 H   0  0  0  0  0  0  0  0  0  0  0  0
   -1.0920   -1.0742    6.7133 H   0  0  0  0  0  0  0  0  0  0  0  0
    4.1510   -2.3457   -0.2920 H   0  0  0  0  0  0  0  0  0  0  0  0
    4.8614   -3.2674    1.0814 H   0  0  0  0  0  0  0  0  0  0  0  0
    3.2819   -3.7714    0.3802 H   0  0  0  0  0  0  0  0  0  0  0  0
    3.5229   -0.3219    2.7661 H   0  0  0  0  0  0  0  0  0  0  0  0
    4.2697   -0.2579    1.1634 H   0  0  0  0  0  0  0  0  0  0  0  0
    1.5069   -2.3734    0.4444 H   0  0  0  0  0  0  0  0  0  0  0  0
    2.1307   -0.7189    0.3831 H   0  0  0  0  0  0  0  0  0  0  0  0
    1.9983   -1.6395    5.9661 H   0  0  0  0  0  0  0  0  0  0  0  0
    2.3790    0.0064    6.4738 H   0  0  0  0  0  0  0  0  0  0  0  0
   -1.8822    0.5467    8.3724 H   0  0  0  0  0  0  0  0  0  0  0  0
   -2.3675    1.6205    7.0595 H   0  0  0  0  0  0  0  0  0  0  0  0
   -3.9668   -0.1933    6.2701 H   0  0  0  0  0  0  0  0  0  0  0  0
   -3.4069   -1.2019    7.6002 H   0  0  0  0  0  0  0  0  0  0  0  0
    4.5344   -0.2019    5.5995 H   0  0  0  0  0  0  0  0  0  0  0  0
    3.0316   -2.6060    2.4177 H   0  0  0  0  0  0  0  0  0  0  0  0
  1  2  1  0  0  0  0
  1  4  2  0  0  0  0
  2  5  2  0  0  0  0
  3  8  1  0  0  0  0
  3  9  2  0  0  0  0
  4 10  1  0  0  0  0
  5 12  1  0  0  0  0
  6  7  2  0  0  0  0
  6 13  1  0  0  0  0
  7 14  1  0  0  0  0
  8 16  2  0  0  0  0
  9 35  1  0  0  0  0
 10 12  2  0  0  0  0
 10 17  1  0  0  0  0
 11 13  2  0  0  0  0
 11 15  1  0  0  0  0
 11 18  1  0  0  0  0
 12 23  1  0  0  0  0
 13 24  1  0  0  0  0
 14 15  2  0  0  0  0
 14 37  1  0  0  0  0
 15 36  1  0  0  0  0
 16 25  1  0  0  0  0
 16 35  1  0  0  0  0
 17 28  1  0  0  0  0
 17 32  2  0  0  0  0
 18 30  1  0  0  0  0
 18 33  2  0  0  0  0
 19 26  1  0  0  0  0
 19 31  1  0  0  0  0
 19 34  2  0  0  0  0
 20 21  1  0  0  0  0
 20 36  1  0  0  0  0
 21 27  1  0  0  0  0
 21 37  1  0  0  0  0
 22 29  1  0  0  0  0
 23 29  1  0  0  0  0
 24 29  1  0  0  0  0
 25 28  1  0  0  0  0
 26 27  1  0  0  0  0
  1 38  1  0  0  0  0
  2 39  1  0  0  0  0
  3 40  1  0  0  0  0
  4 41  1  0  0  0  0
  5 42  1  0  0  0  0
  6 43  1  0  0  0  0
  7 44  1  0  0  0  0
  8 45  1  0  0  0  0
  9 46  1  0  0  0  0
 20 47  1  0  0  0  0
 20 48  1  0  0  0  0
 21 49  1  0  0  0  0
 22 50  1  0  0  0  0
 22 51  1  0  0  0  0
 22 52  1  0  0  0  0
 23 53  1  0  0  0  0
 23 54  1  0  0  0  0
 24 55  1  0  0  0  0
 24 56  1  0  0  0  0
 25 57  1  0  0  0  0
 25 58  1  0  0  0  0
 26 59  1  0  0  0  0
 26 60  1  0  0  0  0
 27 61  1  0  0  0  0
 27 62  1  0  0  0  0
 28 63  1  0  0  0  0
 29 64  1  0  0  0  0
M  CHG  3  29   1  30  -1  31  -1
M  END
$$$$
