AVX38785_1
  -OEChem-04011315013D

 67 70  0     1  0  0  0  0  0999 V2000
    5.3181    2.7037    4.1364 C   0  0  0  0  0  0  0  0  0  0  0  0
    1.1315   -4.9555    5.1679 C   0  0  0  0  0  0  0  0  0  0  0  0
    5.8099    1.7184    3.2804 C   0  0  0  0  0  0  0  0  0  0  0  0
    4.9227    2.3686    5.4314 C   0  0  0  0  0  0  0  0  0  0  0  0
    0.5851   -5.0961    3.8923 C   0  0  0  0  0  0  0  0  0  0  0  0
    2.3769   -4.3486    5.3302 C   0  0  0  0  0  0  0  0  0  0  0  0
    5.9061    0.3979    3.7193 C   0  0  0  0  0  0  0  0  0  0  0  0
    5.0189    1.0481    5.8703 C   0  0  0  0  0  0  0  0  0  0  0  0
    1.2841   -4.6299    2.7789 C   0  0  0  0  0  0  0  0  0  0  0  0
    1.9001    0.5437   -0.2746 C   0  0  0  0  0  0  0  0  0  0  0  0
    1.8195    1.9323   -0.3816 C   0  0  0  0  0  0  0  0  0  0  0  0
    3.0759   -3.8823    4.2169 C   0  0  0  0  0  0  0  0  0  0  0  0
    1.6291    0.7062    2.1225 C   0  0  0  0  0  0  0  0  0  0  0  0
    5.5106    0.0627    5.0143 C   0  0  0  0  0  0  0  0  0  0  0  0
    2.5296   -4.0229    2.9412 C   0  0  0  0  0  0  0  0  0  0  0  0
    1.8106   -0.0681    0.9763 C   0  0  0  0  0  0  0  0  0  0  0  0
    1.6519    2.7080    0.7658 C   0  0  0  0  0  0  0  0  0  0  0  0
    1.5346    2.0939    2.0146 C   0  0  0  0  0  0  0  0  0  0  0  0
    4.3747   -3.2531    4.4147 C   0  0  0  0  0  0  0  0  0  0  0  0
    1.5255    0.0541    3.4440 C   0  0  0  0  0  0  0  0  0  0  0  0
    2.0703    8.3713    0.2936 C   0  0  0  0  0  0  0  0  0  0  0  0
    0.9110    4.1406    2.9160 C   0  0  0  0  0  0  0  0  0  0  0  0
    1.7808    4.7701    1.8358 C   0  0  2  0  0  0  0  0  0  0  0  0
    4.3854   -1.5239    0.7699 C   0  0  0  0  0  0  0  0  0  0  0  0
    5.6137   -1.3585    5.4872 C   0  0  0  0  0  0  0  0  0  0  0  0
    3.2598   -3.5311    1.7264 C   0  0  0  0  0  0  0  0  0  0  0  0
    1.9102   -1.5568    1.0567 C   0  0  0  0  0  0  0  0  0  0  0  0
    2.3222    6.8884    0.5909 C   0  0  0  0  0  0  0  0  0  0  0  0
    1.4048    6.2256    1.6004 C   0  0  0  0  0  0  0  0  0  0  0  0
    4.4077   -2.1075    5.2164 N   0  0  0  0  0  0  0  0  0  0  0  0
    3.2198   -2.0313    1.5800 N   0  3  2  0  0  0  0  0  0  0  0  0
    0.3630   -0.2933    3.8681 O   0  5  0  0  0  0  0  0  0  0  0  0
    2.8369    8.9144   -0.5483 O   0  5  0  0  0  0  0  0  0  0  0  0
    5.3891   -3.7192    3.8688 O   0  0  0  0  0  0  0  0  0  0  0  0
    2.6017   -0.1405    4.1192 O   0  0  0  0  0  0  0  0  0  0  0  0
    1.0989    8.8701    0.9320 O   0  0  0  0  0  0  0  0  0  0  0  0
    1.3356    2.7983    3.1727 O   0  0  0  0  0  0  0  0  0  0  0  0
    1.6005    4.0668    0.5988 O   0  0  0  0  0  0  0  0  0  0  0  0
    5.2445    3.7321    3.7950 H   0  0  0  0  0  0  0  0  0  0  0  0
    0.5875   -5.3183    6.0354 H   0  0  0  0  0  0  0  0  0  0  0  0
    6.1189    1.9793    2.2724 H   0  0  0  0  0  0  0  0  0  0  0  0
    4.5408    3.1357    6.0986 H   0  0  0  0  0  0  0  0  0  0  0  0
   -0.3845   -5.5691    3.7665 H   0  0  0  0  0  0  0  0  0  0  0  0
    2.7924   -4.2459    6.3295 H   0  0  0  0  0  0  0  0  0  0  0  0
    6.2903   -0.3633    3.0453 H   0  0  0  0  0  0  0  0  0  0  0  0
    4.7083    0.7962    6.8809 H   0  0  0  0  0  0  0  0  0  0  0  0
    0.8492   -4.7440    1.7895 H   0  0  0  0  0  0  0  0  0  0  0  0
    2.0378   -0.0532   -1.1724 H   0  0  0  0  0  0  0  0  0  0  0  0
    1.9014    2.4009   -1.3585 H   0  0  0  0  0  0  0  0  0  0  0  0
    0.9968    4.6964    3.8557 H   0  0  0  0  0  0  0  0  0  0  0  0
   -0.1482    4.1201    2.6287 H   0  0  0  0  0  0  0  0  0  0  0  0
    2.8432    4.7094    2.1086 H   0  0  0  0  0  0  0  0  0  0  0  0
    4.2862   -1.9202   -0.2423 H   0  0  0  0  0  0  0  0  0  0  0  0
    4.3430   -0.4330    0.7704 H   0  0  0  0  0  0  0  0  0  0  0  0
    5.3020   -1.8813    1.2432 H   0  0  0  0  0  0  0  0  0  0  0  0
    6.4467   -1.8704    4.9932 H   0  0  0  0  0  0  0  0  0  0  0  0
    5.7993   -1.4013    6.5656 H   0  0  0  0  0  0  0  0  0  0  0  0
    4.3170   -3.8159    1.7575 H   0  0  0  0  0  0  0  0  0  0  0  0
    2.8287   -3.9482    0.8099 H   0  0  0  0  0  0  0  0  0  0  0  0
    1.1417   -1.9760    1.7187 H   0  0  0  0  0  0  0  0  0  0  0  0
    1.7836   -2.0217    0.0706 H   0  0  0  0  0  0  0  0  0  0  0  0
    3.3465    6.8251    0.9795 H   0  0  0  0  0  0  0  0  0  0  0  0
    2.3036    6.3347   -0.3563 H   0  0  0  0  0  0  0  0  0  0  0  0
    0.3630    6.2618    1.2867 H   0  0  0  0  0  0  0  0  0  0  0  0
    1.4828    6.7361    2.5599 H   0  0  0  0  0  0  0  0  0  0  0  0
    3.5396   -1.7339    5.5859 H   0  0  0  0  0  0  0  0  0  0  0  0
    3.3376   -1.6429    2.5301 H   0  0  0  0  0  0  0  0  0  0  0  0
  1  3  1  0  0  0  0
  1  4  2  0  0  0  0
  2  5  1  0  0  0  0
  2  6  2  0  0  0  0
  3  7  2  0  0  0  0
  4  8  1  0  0  0  0
  5  9  2  0  0  0  0
  6 12  1  0  0  0  0
  7 14  1  0  0  0  0
  8 14  2  0  0  0  0
  9 15  1  0  0  0  0
 10 11  2  0  0  0  0
 10 16  1  0  0  0  0
 11 17  1  0  0  0  0
 12 15  2  0  0  0  0
 12 19  1  0  0  0  0
 13 16  2  0  0  0  0
 13 18  1  0  0  0  0
 13 20  1  0  0  0  0
 14 25  1  0  0  0  0
 15 26  1  0  0  0  0
 16 27  1  0  0  0  0
 17 18  2  0  0  0  0
 17 38  1  0  0  0  0
 18 37  1  0  0  0  0
 19 30  1  0  0  0  0
 19 34  2  0  0  0  0
 20 32  1  0  0  0  0
 20 35  2  0  0  0  0
 21 28  1  0  0  0  0
 21 33  1  0  0  0  0
 21 36  2  0  0  0  0
 22 23  1  0  0  0  0
 22 37  1  0  0  0  0
 23 29  1  0  0  0  0
 23 38  1  0  0  0  0
 24 31  1  0  0  0  0
 25 30  1  0  0  0  0
 26 31  1  0  0  0  0
 27 31  1  0  0  0  0
 28 29  1  0  0  0  0
  1 39  1  0  0  0  0
  2 40  1  0  0  0  0
  3 41  1  0  0  0  0
  4 42  1  0  0  0  0
  5 43  1  0  0  0  0
  6 44  1  0  0  0  0
  7 45  1  0  0  0  0
  8 46  1  0  0  0  0
  9 47  1  0  0  0  0
 10 48  1  0  0  0  0
 11 49  1  0  0  0  0
 22 50  1  0  0  0  0
 22 51  1  0  0  0  0
 23 52  1  0  0  0  0
 24 53  1  0  0  0  0
 24 54  1  0  0  0  0
 24 55  1  0  0  0  0
 25 56  1  0  0  0  0
 25 57  1  0  0  0  0
 26 58  1  0  0  0  0
 26 59  1  0  0  0  0
 27 60  1  0  0  0  0
 27 61  1  0  0  0  0
 28 62  1  0  0  0  0
 28 63  1  0  0  0  0
 29 64  1  0  0  0  0
 29 65  1  0  0  0  0
 30 66  1  0  0  0  0
 31 67  1  0  0  0  0
M  CHG  3  31   1  32  -1  33  -1
M  END
$$$$
