@<TRIPOS>MOLECULE
AVX38788_0
   67    70     0     0     0
SMALL
NO_CHARGES

@<TRIPOS>ATOM
      1 C1         -3.9770   -6.9959   -3.9459 C.ar      1 MOL         0.0000
      2 C2         -5.2276   -6.5379   -3.5316 C.ar      1 MOL         0.0000
      3 C3         -2.8521   -6.7643   -3.1543 C.ar      1 MOL         0.0000
      4 C4         -5.3534   -5.8482   -2.3257 C.ar      1 MOL         0.0000
      5 C5         -3.1001   -2.9075    2.4390 C.ar      1 MOL         0.0000
      6 C6         -1.9347   -2.2125    2.7627 C.ar      1 MOL         0.0000
      7 C7         -2.9778   -6.0746   -1.9484 C.ar      1 MOL         0.0000
      8 C8         -2.0584   -4.9821    3.1147 C.ar      1 MOL         0.0000
      9 C9         -4.2285   -5.6165   -1.5341 C.ar      1 MOL         0.0000
     10 C10        -3.1600   -4.2910    2.6095 C.ar      1 MOL         0.0000
     11 C11        -0.8280   -2.9049    3.2549 C.ar      1 MOL         0.0000
     12 C12        -0.8974   -4.2858    3.4516 C.ar      1 MOL         0.0000
     13 C13        -1.7868   -5.8457   -1.1416 C.2       1 MOL         0.0000
     14 C14        -2.1290   -6.4457    3.3026 C.2       1 MOL         0.0000
     15 C15         4.0894   -0.0868    3.8456 C.2       1 MOL         0.0000
     16 C16         1.3791   -1.1086   -0.5024 C.3       1 MOL         0.0000
     17 C17         1.9638   -2.5359   -0.4622 C.3       1 MOL         0.0000
     18 C18        -0.0168   -1.7643   -0.5521 C.3       1 MOL         0.0000
     19 C19         1.1253   -4.1837    4.5868 C.3       1 MOL         0.0000
     20 C20         0.6713   -3.0025   -1.1638 C.3       1 MOL         0.0000
     21 C21         1.4556   -2.9973    3.6908 C.3       1 MOL         0.0000
     22 C22        -5.3176   -6.8900    0.8850 C.3       1 MOL         0.0000
     23 C23        -4.3924   -4.8716   -0.2421 C.3       1 MOL         0.0000
     24 C24        -4.4202   -5.0061    2.2442 C.3       1 MOL         0.0000
     25 C25         2.9578   -1.0048    3.3684 C.3       1 MOL         0.0000
     26 C26         0.1402   -4.3113   -0.6866 C.3       1 MOL         0.0000
     27 C27         2.5582   -2.1387    4.2930 C.3       1 MOL         0.0000
     28 N1         -1.0726   -4.6684   -1.3868 N.am      1 MOL         0.0000
     29 N2         -4.3168   -5.7659    0.9691 N.4       1 MOL         0.0000
     30 O1         -2.5434   -6.9010    4.4308 O.co2     1 MOL         0.0000
     31 O2          4.4145    0.8545    3.0713 O.co2     1 MOL         0.0000
     32 O3         -1.4302   -6.6826   -0.2951 O.2       1 MOL         0.0000
     33 O4         -1.7729   -7.2077    2.3307 O.co2     1 MOL         0.0000
     34 O5          4.5549   -0.3863    4.9830 O.co2     1 MOL         0.0000
     35 O6          0.1430   -5.0163    3.9624 O.3       1 MOL         0.0000
     36 O7          0.2940   -2.1704    3.5351 O.3       1 MOL         0.0000
     37 H1         -3.8785   -7.5332   -4.8848 H         1 MOL         0.0000
     38 H2         -6.1032   -6.7183   -4.1485 H         1 MOL         0.0000
     39 H3         -1.8828   -7.1253   -3.4888 H         1 MOL         0.0000
     40 H4         -6.3325   -5.4961   -2.0119 H         1 MOL         0.0000
     41 H5         -3.9555   -2.3617    2.0494 H         1 MOL         0.0000
     42 H6         -1.8931   -1.1366    2.6162 H         1 MOL         0.0000
     43 H7          1.5653   -0.5237    0.4057 H         1 MOL         0.0000
     44 H8          1.6527   -0.5080   -1.3735 H         1 MOL         0.0000
     45 H9          2.8661   -2.6586   -1.0733 H         1 MOL         0.0000
     46 H10         2.1552   -2.9426    0.5343 H         1 MOL         0.0000
     47 H11        -0.5101   -1.9044    0.4134 H         1 MOL         0.0000
     48 H12        -0.7129   -1.2644   -1.2358 H         1 MOL         0.0000
     49 H13         2.0145   -4.7993    4.7587 H         1 MOL         0.0000
     50 H14         0.7388   -3.8645    5.5633 H         1 MOL         0.0000
     51 H15         0.7276   -2.9846   -2.2576 H         1 MOL         0.0000
     52 H16         1.7652   -3.3383    2.6934 H         1 MOL         0.0000
     53 H17        -6.3164   -6.4505    0.9097 H         1 MOL         0.0000
     54 H18        -5.1454   -7.4212   -0.0530 H         1 MOL         0.0000
     55 H19        -5.1562   -7.5458    1.7428 H         1 MOL         0.0000
     56 H20        -3.6127   -4.1119   -0.1214 H         1 MOL         0.0000
     57 H21        -5.3622   -4.3642   -0.1985 H         1 MOL         0.0000
     58 H22        -4.7084   -5.7321    3.0151 H         1 MOL         0.0000
     59 H23        -5.2574   -4.3071    2.1216 H         1 MOL         0.0000
     60 H24         3.3025   -1.4490    2.4261 H         1 MOL         0.0000
     61 H25         2.0835   -0.3860    3.1306 H         1 MOL         0.0000
     62 H26        -0.0925   -4.2643    0.3815 H         1 MOL         0.0000
     63 H27         0.8690   -5.1099   -0.8537 H         1 MOL         0.0000
     64 H28         2.2155   -1.7726    5.2592 H         1 MOL         0.0000
     65 H29         3.4136   -2.7909    4.4670 H         1 MOL         0.0000
     66 H30        -1.3734   -4.0505   -2.1335 H         1 MOL         0.0000
     67 H31        -3.3833   -6.2078    0.9438 H         1 MOL         0.0000
@<TRIPOS>BOND
     1    1    2 ar
     2    1    3 ar
     3    2    4 ar
     4    3    7 ar
     5    4    9 ar
     6    5    6 ar
     7    5   10 ar
     8    6   11 ar
     9    7    9 ar
    10    7   13 1
    11    8   10 ar
    12    8   12 ar
    13    8   14 1
    14    9   23 1
    15   10   24 1
    16   11   12 ar
    17   11   36 1
    18   12   35 1
    19   13   28 am
    20   13   32 2
    21   14   30 1
    22   14   33 2
    23   15   25 1
    24   15   31 1
    25   15   34 2
    26   16   17 1
    27   16   18 1
    28   17   20 1
    29   18   20 1
    30   19   21 1
    31   19   35 1
    32   20   26 1
    33   21   27 1
    34   21   36 1
    35   22   29 1
    36   23   29 1
    37   24   29 1
    38   25   27 1
    39   26   28 1
    40    1   37 1
    41    2   38 1
    42    3   39 1
    43    4   40 1
    44    5   41 1
    45    6   42 1
    46   16   43 1
    47   16   44 1
    48   17   45 1
    49   17   46 1
    50   18   47 1
    51   18   48 1
    52   19   49 1
    53   19   50 1
    54   20   51 1
    55   21   52 1
    56   22   53 1
    57   22   54 1
    58   22   55 1
    59   23   56 1
    60   23   57 1
    61   24   58 1
    62   24   59 1
    63   25   60 1
    64   25   61 1
    65   26   62 1
    66   26   63 1
    67   27   64 1
    68   27   65 1
    69   28   66 1
    70   29   67 1
