AVX38711_0
  -OEChem-04011314563D

 37 39  0     1  0  0  0  0  0999 V2000
    6.1623   -3.3720    6.4480 C   0  0  0  0  0  0  0  0  0  0  0  0
    4.7761   -3.3034    6.3094 C   0  0  0  0  0  0  0  0  0  0  0  0
    6.9892   -2.9329    5.4140 C   0  0  0  0  0  0  0  0  0  0  0  0
    1.3698   -1.5692   -0.5690 C   0  0  0  0  0  0  0  0  0  0  0  0
    0.8576   -0.5942    0.3034 C   0  0  0  0  0  0  0  0  0  0  0  0
    4.2167   -2.7958    5.1368 C   0  0  0  0  0  0  0  0  0  0  0  0
    6.4299   -2.4253    4.2414 C   0  0  0  0  0  0  0  0  0  0  0  0
    2.4668   -2.3516   -0.1986 C   0  0  0  0  0  0  0  0  0  0  0  0
    1.4387   -0.3848    1.5551 C   0  0  0  0  0  0  0  0  0  0  0  0
    5.0436   -2.3567    4.1028 C   0  0  0  0  0  0  0  0  0  0  0  0
    3.0373   -2.1324    1.0429 C   0  0  0  0  0  0  0  0  0  0  0  0
    2.5309   -1.1592    1.8938 C   0  0  0  0  0  0  0  0  0  0  0  0
    0.9022    0.6337    2.4688 C   0  0  0  0  0  0  0  0  0  0  0  0
    4.9147   -5.5004    0.2681 C   0  0  0  0  0  0  0  0  0  0  0  0
    4.1601   -2.8465    1.7140 C   0  0  1  0  0  0  0  0  0  0  0  0
    4.4382   -1.8068    2.8318 C   0  0  1  0  0  0  0  0  0  0  0  0
    3.6198   -5.2084    1.0353 C   0  0  0  0  0  0  0  0  0  0  0  0
    3.7099   -4.2277    2.1859 C   0  0  0  0  0  0  0  0  0  0  0  0
   -0.1194    1.3262    2.0974 O   0  5  0  0  0  0  0  0  0  0  0  0
    4.7909   -5.8005   -0.9510 O   0  5  0  0  0  0  0  0  0  0  0  0
    1.4701    0.8034    3.6134 O   0  0  0  0  0  0  0  0  0  0  0  0
    5.9655   -5.3890    0.9634 O   0  0  0  0  0  0  0  0  0  0  0  0
    3.2065   -1.0730    3.0856 O   0  0  0  0  0  0  0  0  0  0  0  0
    6.5977   -3.7661    7.3617 H   0  0  0  0  0  0  0  0  0  0  0  0
    4.1321   -3.6442    7.1149 H   0  0  0  0  0  0  0  0  0  0  0  0
    8.0685   -2.9852    5.5220 H   0  0  0  0  0  0  0  0  0  0  0  0
    0.9023   -1.7215   -1.5381 H   0  0  0  0  0  0  0  0  0  0  0  0
   -0.0007   -0.0046   -0.0098 H   0  0  0  0  0  0  0  0  0  0  0  0
    3.1355   -2.7463    5.0375 H   0  0  0  0  0  0  0  0  0  0  0  0
    7.0819   -2.0857    3.4410 H   0  0  0  0  0  0  0  0  0  0  0  0
    2.8514   -3.1148   -0.8663 H   0  0  0  0  0  0  0  0  0  0  0  0
    5.0334   -2.9402    1.0591 H   0  0  0  0  0  0  0  0  0  0  0  0
    5.1682   -1.0554    2.4384 H   0  0  0  0  0  0  0  0  0  0  0  0
    3.2858   -6.1694    1.4464 H   0  0  0  0  0  0  0  0  0  0  0  0
    2.8555   -4.8830    0.3184 H   0  0  0  0  0  0  0  0  0  0  0  0
    4.4020   -4.5611    2.9548 H   0  0  0  0  0  0  0  0  0  0  0  0
    2.7312   -4.1006    2.6440 H   0  0  0  0  0  0  0  0  0  0  0  0
  1  2  2  0  0  0  0
  1  3  1  0  0  0  0
  2  6  1  0  0  0  0
  3  7  2  0  0  0  0
  4  5  1  0  0  0  0
  4  8  2  0  0  0  0
  5  9  2  0  0  0  0
  6 10  2  0  0  0  0
  7 10  1  0  0  0  0
  8 11  1  0  0  0  0
  9 12  1  0  0  0  0
  9 13  1  0  0  0  0
 10 16  1  0  0  0  0
 11 12  2  0  0  0  0
 11 15  1  0  0  0  0
 12 23  1  0  0  0  0
 13 19  1  0  0  0  0
 13 21  2  0  0  0  0
 14 17  1  0  0  0  0
 14 20  1  0  0  0  0
 14 22  2  0  0  0  0
 15 16  1  0  0  0  0
 15 18  1  0  0  0  0
 16 23  1  0  0  0  0
 17 18  1  0  0  0  0
  1 24  1  0  0  0  0
  2 25  1  0  0  0  0
  3 26  1  0  0  0  0
  4 27  1  0  0  0  0
  5 28  1  0  0  0  0
  6 29  1  0  0  0  0
  7 30  1  0  0  0  0
  8 31  1  0  0  0  0
 15 32  1  0  0  0  0
 16 33  1  0  0  0  0
 17 34  1  0  0  0  0
 17 35  1  0  0  0  0
 18 36  1  0  0  0  0
 18 37  1  0  0  0  0
M  CHG  2  19  -1  20  -1
M  END
$$$$
