@<TRIPOS>MOLECULE
AVX38784_2
   66    68     0     0     0
SMALL
NO_CHARGES

@<TRIPOS>ATOM
      1 C1          7.8446   -2.2153    3.6688 C.ar      1 MOL         0.0000
      2 C2          7.7894   -1.6561    2.3922 C.ar      1 MOL         0.0000
      3 C3          6.6785   -2.3491    4.4227 C.ar      1 MOL         0.0000
      4 C4          6.5682   -1.2306    1.8694 C.ar      1 MOL         0.0000
      5 C5          0.7254    0.2021    2.3555 C.ar      1 MOL         0.0000
      6 C6         -0.1548    0.6082    3.3587 C.ar      1 MOL         0.0000
      7 C7          5.4574   -1.9235    3.8998 C.ar      1 MOL         0.0000
      8 C8          0.2950   -2.1126    2.9057 C.ar      1 MOL         0.0000
      9 C9          5.4022   -1.3643    2.6232 C.ar      1 MOL         0.0000
     10 C10         0.9542   -1.1562    2.1330 C.ar      1 MOL         0.0000
     11 C11        -0.8037   -0.3475    4.1410 C.ar      1 MOL         0.0000
     12 C12        -0.5959   -1.7074    3.8999 C.ar      1 MOL         0.0000
     13 C13         4.2553   -2.0742    4.7086 C.2       1 MOL         0.0000
     14 C14         0.5328   -3.5499    2.6608 C.2       1 MOL         0.0000
     15 C15        -3.7903    1.4221    8.6598 C.2       1 MOL         0.0000
     16 C16        -2.3510   -2.1886    5.3414 C.3       1 MOL         0.0000
     17 C17        -1.9702   -0.9089    6.0743 C.3       1 MOL         0.0000
     18 C18         1.9217   -1.6746    8.7331 C.3       1 MOL         0.0000
     19 C19         2.2187    0.4001    6.5630 C.3       1 MOL         0.0000
     20 C20         3.9388   -2.9292    0.6058 C.3       1 MOL         0.0000
     21 C21         4.1025   -0.8977    2.0366 C.3       1 MOL         0.0000
     22 C22         1.9102   -1.5568    1.0567 C.3       1 MOL         0.0000
     23 C23        -2.7256    0.8288    7.7296 C.3       1 MOL         0.0000
     24 C24        -3.1217   -0.3948    6.9259 C.3       1 MOL         0.0000
     25 C25         3.1243   -1.5973    7.8011 C.3       1 MOL         0.0000
     26 C26         2.7715   -1.0148    6.4265 C.3       1 MOL         0.0000
     27 N1          3.9188   -1.0069    5.5476 N.am      1 MOL         0.0000
     28 N2          3.2198   -2.0313    1.5800 N.4       1 MOL         0.0000
     29 O1         -0.2186   -4.1617    1.8164 O.co2     1 MOL         0.0000
     30 O2         -3.4530    2.4406    9.3234 O.co2     1 MOL         0.0000
     31 O3          3.5875   -3.1207    4.6539 O.2       1 MOL         0.0000
     32 O4          1.4818   -4.1335    3.3017 O.co2     1 MOL         0.0000
     33 O5         -4.8982    0.8123    8.6349 O.co2     1 MOL         0.0000
     34 O6         -1.2284   -2.6928    4.6111 O.3       1 MOL         0.0000
     35 O7         -1.6399    0.1130    5.1236 O.3       1 MOL         0.0000
     36 H1          8.7953   -2.5471    4.0764 H         1 MOL         0.0000
     37 H2          8.6977   -1.5520    1.8058 H         1 MOL         0.0000
     38 H3          6.7349   -2.7855    5.4167 H         1 MOL         0.0000
     39 H4          6.5362   -0.7967    0.8734 H         1 MOL         0.0000
     40 H5          1.2325    0.9530    1.7552 H         1 MOL         0.0000
     41 H6         -0.3184    1.6682    3.5324 H         1 MOL         0.0000
     42 H7         -2.6558   -2.9654    6.0505 H         1 MOL         0.0000
     43 H8         -3.1779   -2.0271    4.6379 H         1 MOL         0.0000
     44 H9         -1.0920   -1.0742    6.7133 H         1 MOL         0.0000
     45 H10         1.1231   -2.2887    8.3058 H         1 MOL         0.0000
     46 H11         2.2142   -2.1228    9.6880 H         1 MOL         0.0000
     47 H12         1.5191   -0.6772    8.9366 H         1 MOL         0.0000
     48 H13         2.9481    1.0618    7.0412 H         1 MOL         0.0000
     49 H14         1.9618    0.8225    5.5851 H         1 MOL         0.0000
     50 H15         1.3081    0.4043    7.1724 H         1 MOL         0.0000
     51 H16         4.1510   -2.3457   -0.2920 H         1 MOL         0.0000
     52 H17         4.8614   -3.2674    1.0814 H         1 MOL         0.0000
     53 H18         3.2819   -3.7714    0.3802 H         1 MOL         0.0000
     54 H19         3.5229   -0.3219    2.7661 H         1 MOL         0.0000
     55 H20         4.2697   -0.2579    1.1634 H         1 MOL         0.0000
     56 H21         1.5069   -2.3734    0.4444 H         1 MOL         0.0000
     57 H22         2.1307   -0.7189    0.3831 H         1 MOL         0.0000
     58 H23        -1.8822    0.5467    8.3724 H         1 MOL         0.0000
     59 H24        -2.3675    1.6205    7.0595 H         1 MOL         0.0000
     60 H25        -3.9668   -0.1933    6.2701 H         1 MOL         0.0000
     61 H26        -3.4069   -1.2019    7.6002 H         1 MOL         0.0000
     62 H27         3.8898   -0.9727    8.2774 H         1 MOL         0.0000
     63 H28         3.5520   -2.6014    7.6894 H         1 MOL         0.0000
     64 H29         2.0143   -1.6445    5.9451 H         1 MOL         0.0000
     65 H30         4.5344   -0.2019    5.5995 H         1 MOL         0.0000
     66 H31         3.0316   -2.6060    2.4177 H         1 MOL         0.0000
@<TRIPOS>BOND
     1    1    2 ar
     2    1    3 ar
     3    2    4 ar
     4    3    7 ar
     5    4    9 ar
     6    5    6 ar
     7    5   10 ar
     8    6   11 ar
     9    7    9 ar
    10    7   13 1
    11    8   10 ar
    12    8   12 ar
    13    8   14 1
    14    9   21 1
    15   10   22 1
    16   11   12 ar
    17   11   35 1
    18   12   34 1
    19   13   27 am
    20   13   31 2
    21   14   29 1
    22   14   32 2
    23   15   23 1
    24   15   30 1
    25   15   33 2
    26   16   17 1
    27   16   34 1
    28   17   24 1
    29   17   35 1
    30   18   25 1
    31   19   26 1
    32   20   28 1
    33   21   28 1
    34   22   28 1
    35   23   24 1
    36   25   26 1
    37   26   27 1
    38    1   36 1
    39    2   37 1
    40    3   38 1
    41    4   39 1
    42    5   40 1
    43    6   41 1
    44   16   42 1
    45   16   43 1
    46   17   44 1
    47   18   45 1
    48   18   46 1
    49   18   47 1
    50   19   48 1
    51   19   49 1
    52   19   50 1
    53   20   51 1
    54   20   52 1
    55   20   53 1
    56   21   54 1
    57   21   55 1
    58   22   56 1
    59   22   57 1
    60   23   58 1
    61   23   59 1
    62   24   60 1
    63   24   61 1
    64   25   62 1
    65   25   63 1
    66   26   64 1
    67   27   65 1
    68   28   66 1
