@<TRIPOS>MOLECULE
AVX38673_1
   58    60     0     0     0
SMALL
NO_CHARGES

@<TRIPOS>ATOM
      1 C1          3.8350    0.9248    2.1364 C.ar      1 MOL         0.0000
      2 C2          3.9377   -0.4156    1.7644 C.ar      1 MOL         0.0000
      3 C3          2.7754    1.7001    1.6655 C.ar      1 MOL         0.0000
      4 C4          2.9807   -0.9807    0.9213 C.ar      1 MOL         0.0000
      5 C5          1.8185    1.1351    0.8225 C.ar      1 MOL         0.0000
      6 C6          0.3407   -4.8039    3.7113 C.ar      1 MOL         0.0000
      7 C7          1.0263   -5.4811    4.7226 C.ar      1 MOL         0.0000
      8 C8         -0.7447   -6.8665    3.0071 C.ar      1 MOL         0.0000
      9 C9          1.9211   -0.2053    0.4504 C.ar      1 MOL         0.0000
     10 C10        -0.5398   -5.4926    2.8584 C.ar      1 MOL         0.0000
     11 C11         0.8063   -6.8374    4.8481 C.ar      1 MOL         0.0000
     12 C12        -0.0556   -7.5115    4.0134 C.ar      1 MOL         0.0000
     13 C13        -1.6615   -7.6101    2.1282 C.2       1 MOL         0.0000
     14 C14         1.2680   -0.6743   -1.9311 C.2       1 MOL         0.0000
     15 C15        -0.2663   -2.6773    0.7165 C.2       1 MOL         0.0000
     16 C16         0.7851   -8.9239    5.4206 C.3       1 MOL         0.0000
     17 C17         3.2755    3.8277   -3.5701 C.3       1 MOL         0.0000
     18 C18         0.5468   -4.9683    0.1094 C.3       1 MOL         0.0000
     19 C19        -1.2535   -4.7208    1.7865 C.3       1 MOL         0.0000
     20 C20         2.0216    2.9928   -3.3617 C.3       1 MOL         0.0000
     21 C21         2.0888    1.6791   -4.1439 C.3       1 MOL         0.0000
     22 C22         0.8703    0.7931   -3.9069 C.3       1 MOL         0.0000
     23 C23         0.8843   -0.8167   -0.4630 C.3       1 MOL         0.0000
     24 N1          0.7004    0.4505   -2.5132 N.am      1 MOL         0.0000
     25 N2          0.6837   -2.2227   -0.1939 N.am      1 MOL         0.0000
     26 N3         -0.3217   -4.0754    0.8651 N.am      1 MOL         0.0000
     27 O1         -2.8978   -7.7196    2.4724 O.co2     1 MOL         0.0000
     28 O2         -1.1975   -8.1274    1.0438 O.co2     1 MOL         0.0000
     29 O3          1.9682   -1.4958   -2.5197 O.2       1 MOL         0.0000
     30 O4         -0.9929   -1.9032    1.3469 O.2       1 MOL         0.0000
     31 O5          1.3810   -7.6577    5.7693 O.3       1 MOL         0.0000
     32 O6         -0.1281   -8.8382    4.3074 O.3       1 MOL         0.0000
     33 H1          4.5795    1.3642    2.7939 H         1 MOL         0.0000
     34 H2          4.7620   -1.0198    2.1318 H         1 MOL         0.0000
     35 H3          2.6946    2.7434    1.9559 H         1 MOL         0.0000
     36 H4          3.0689   -2.0258    0.6365 H         1 MOL         0.0000
     37 H5          0.9964    1.7469    0.4604 H         1 MOL         0.0000
     38 H6          0.4943   -3.7343    3.5892 H         1 MOL         0.0000
     39 H7          1.7060   -4.9539    5.3823 H         1 MOL         0.0000
     40 H8          1.5842   -9.6293    5.1652 H         1 MOL         0.0000
     41 H9          0.2415   -9.3078    6.2916 H         1 MOL         0.0000
     42 H10         3.4233    4.0552   -4.6307 H         1 MOL         0.0000
     43 H11         3.1946    4.7747   -3.0274 H         1 MOL         0.0000
     44 H12         4.1629    3.3014   -3.2042 H         1 MOL         0.0000
     45 H13         1.4733   -5.1471    0.6612 H         1 MOL         0.0000
     46 H14         0.7939   -4.5251   -0.8591 H         1 MOL         0.0000
     47 H15         0.0480   -5.9263   -0.0606 H         1 MOL         0.0000
     48 H16        -1.9025   -5.3818    1.2019 H         1 MOL         0.0000
     49 H17        -1.8891   -3.9416    2.2203 H         1 MOL         0.0000
     50 H18         1.9035    2.7833   -2.2923 H         1 MOL         0.0000
     51 H19         1.1499    3.5775   -3.6766 H         1 MOL         0.0000
     52 H20         2.1887    1.8938   -5.2151 H         1 MOL         0.0000
     53 H21         2.9860    1.1262   -3.8403 H         1 MOL         0.0000
     54 H22         0.9402   -0.1395   -4.4756 H         1 MOL         0.0000
     55 H23        -0.0389    1.3158   -4.2204 H         1 MOL         0.0000
     56 H24        -0.0932   -0.3455   -0.3039 H         1 MOL         0.0000
     57 H25         0.1334    1.0728   -1.9448 H         1 MOL         0.0000
     58 H26         1.2543   -2.9007   -0.6847 H         1 MOL         0.0000
@<TRIPOS>BOND
     1    1    2 ar
     2    1    3 ar
     3    2    4 ar
     4    3    5 ar
     5    4    9 ar
     6    5    9 ar
     7    6    7 ar
     8    6   10 ar
     9    7   11 ar
    10    8   10 ar
    11    8   12 ar
    12    8   13 1
    13    9   23 1
    14   10   19 1
    15   11   12 ar
    16   11   31 1
    17   12   32 1
    18   13   27 1
    19   13   28 2
    20   14   23 1
    21   14   24 am
    22   14   29 2
    23   15   25 am
    24   15   26 am
    25   15   30 2
    26   16   31 1
    27   16   32 1
    28   17   20 1
    29   18   26 1
    30   19   26 1
    31   20   21 1
    32   21   22 1
    33   22   24 1
    34   23   25 1
    35    1   33 1
    36    2   34 1
    37    3   35 1
    38    4   36 1
    39    5   37 1
    40    6   38 1
    41    7   39 1
    42   16   40 1
    43   16   41 1
    44   17   42 1
    45   17   43 1
    46   17   44 1
    47   18   45 1
    48   18   46 1
    49   18   47 1
    50   19   48 1
    51   19   49 1
    52   20   50 1
    53   20   51 1
    54   21   52 1
    55   21   53 1
    56   22   54 1
    57   22   55 1
    58   23   56 1
    59   24   57 1
    60   25   58 1
