AVX38788_0
  -OEChem-04011315013D

 67 70  0     1  0  0  0  0  0999 V2000
   -3.9770   -6.9959   -3.9459 C   0  0  0  0  0  0  0  0  0  0  0  0
   -5.2276   -6.5379   -3.5316 C   0  0  0  0  0  0  0  0  0  0  0  0
   -2.8521   -6.7643   -3.1543 C   0  0  0  0  0  0  0  0  0  0  0  0
   -5.3534   -5.8482   -2.3257 C   0  0  0  0  0  0  0  0  0  0  0  0
   -3.1001   -2.9075    2.4390 C   0  0  0  0  0  0  0  0  0  0  0  0
   -1.9347   -2.2125    2.7627 C   0  0  0  0  0  0  0  0  0  0  0  0
   -2.9778   -6.0746   -1.9484 C   0  0  0  0  0  0  0  0  0  0  0  0
   -2.0584   -4.9821    3.1147 C   0  0  0  0  0  0  0  0  0  0  0  0
   -4.2285   -5.6165   -1.5341 C   0  0  0  0  0  0  0  0  0  0  0  0
   -3.1600   -4.2910    2.6095 C   0  0  0  0  0  0  0  0  0  0  0  0
   -0.8280   -2.9049    3.2549 C   0  0  0  0  0  0  0  0  0  0  0  0
   -0.8974   -4.2858    3.4516 C   0  0  0  0  0  0  0  0  0  0  0  0
   -1.7868   -5.8457   -1.1416 C   0  0  0  0  0  0  0  0  0  0  0  0
   -2.1290   -6.4457    3.3026 C   0  0  0  0  0  0  0  0  0  0  0  0
    4.0894   -0.0868    3.8456 C   0  0  0  0  0  0  0  0  0  0  0  0
    1.3791   -1.1086   -0.5024 C   0  0  0  0  0  0  0  0  0  0  0  0
    1.9638   -2.5359   -0.4622 C   0  0  0  0  0  0  0  0  0  0  0  0
   -0.0168   -1.7643   -0.5521 C   0  0  0  0  0  0  0  0  0  0  0  0
    1.1253   -4.1837    4.5868 C   0  0  0  0  0  0  0  0  0  0  0  0
    0.6713   -3.0025   -1.1638 C   0  0  0  0  0  0  0  0  0  0  0  0
    1.4556   -2.9973    3.6908 C   0  0  2  0  0  0  0  0  0  0  0  0
   -5.3176   -6.8900    0.8850 C   0  0  0  0  0  0  0  0  0  0  0  0
   -4.3924   -4.8716   -0.2421 C   0  0  0  0  0  0  0  0  0  0  0  0
   -4.4202   -5.0061    2.2442 C   0  0  0  0  0  0  0  0  0  0  0  0
    2.9578   -1.0048    3.3684 C   0  0  0  0  0  0  0  0  0  0  0  0
    0.1402   -4.3113   -0.6866 C   0  0  0  0  0  0  0  0  0  0  0  0
    2.5582   -2.1387    4.2930 C   0  0  0  0  0  0  0  0  0  0  0  0
   -1.0726   -4.6684   -1.3868 N   0  0  0  0  0  0  0  0  0  0  0  0
   -4.3168   -5.7659    0.9691 N   0  3  1  0  0  0  0  0  0  0  0  0
   -2.5434   -6.9010    4.4308 O   0  5  0  0  0  0  0  0  0  0  0  0
    4.4145    0.8545    3.0713 O   0  5  0  0  0  0  0  0  0  0  0  0
   -1.4302   -6.6826   -0.2951 O   0  0  0  0  0  0  0  0  0  0  0  0
   -1.7729   -7.2077    2.3307 O   0  0  0  0  0  0  0  0  0  0  0  0
    4.5549   -0.3863    4.9830 O   0  0  0  0  0  0  0  0  0  0  0  0
    0.1430   -5.0163    3.9624 O   0  0  0  0  0  0  0  0  0  0  0  0
    0.2940   -2.1704    3.5351 O   0  0  0  0  0  0  0  0  0  0  0  0
   -3.8785   -7.5332   -4.8848 H   0  0  0  0  0  0  0  0  0  0  0  0
   -6.1032   -6.7183   -4.1485 H   0  0  0  0  0  0  0  0  0  0  0  0
   -1.8828   -7.1253   -3.4888 H   0  0  0  0  0  0  0  0  0  0  0  0
   -6.3325   -5.4961   -2.0119 H   0  0  0  0  0  0  0  0  0  0  0  0
   -3.9555   -2.3617    2.0494 H   0  0  0  0  0  0  0  0  0  0  0  0
   -1.8931   -1.1366    2.6162 H   0  0  0  0  0  0  0  0  0  0  0  0
    1.5653   -0.5237    0.4057 H   0  0  0  0  0  0  0  0  0  0  0  0
    1.6527   -0.5080   -1.3735 H   0  0  0  0  0  0  0  0  0  0  0  0
    2.8661   -2.6586   -1.0733 H   0  0  0  0  0  0  0  0  0  0  0  0
    2.1552   -2.9426    0.5343 H   0  0  0  0  0  0  0  0  0  0  0  0
   -0.5101   -1.9044    0.4134 H   0  0  0  0  0  0  0  0  0  0  0  0
   -0.7129   -1.2644   -1.2358 H   0  0  0  0  0  0  0  0  0  0  0  0
    2.0145   -4.7993    4.7587 H   0  0  0  0  0  0  0  0  0  0  0  0
    0.7388   -3.8645    5.5633 H   0  0  0  0  0  0  0  0  0  0  0  0
    0.7276   -2.9846   -2.2576 H   0  0  0  0  0  0  0  0  0  0  0  0
    1.7652   -3.3383    2.6934 H   0  0  0  0  0  0  0  0  0  0  0  0
   -6.3164   -6.4505    0.9097 H   0  0  0  0  0  0  0  0  0  0  0  0
   -5.1454   -7.4212   -0.0530 H   0  0  0  0  0  0  0  0  0  0  0  0
   -5.1562   -7.5458    1.7428 H   0  0  0  0  0  0  0  0  0  0  0  0
   -3.6127   -4.1119   -0.1214 H   0  0  0  0  0  0  0  0  0  0  0  0
   -5.3622   -4.3642   -0.1985 H   0  0  0  0  0  0  0  0  0  0  0  0
   -4.7084   -5.7321    3.0151 H   0  0  0  0  0  0  0  0  0  0  0  0
   -5.2574   -4.3071    2.1216 H   0  0  0  0  0  0  0  0  0  0  0  0
    3.3025   -1.4490    2.4261 H   0  0  0  0  0  0  0  0  0  0  0  0
    2.0835   -0.3860    3.1306 H   0  0  0  0  0  0  0  0  0  0  0  0
   -0.0925   -4.2643    0.3815 H   0  0  0  0  0  0  0  0  0  0  0  0
    0.8690   -5.1099   -0.8537 H   0  0  0  0  0  0  0  0  0  0  0  0
    2.2155   -1.7726    5.2592 H   0  0  0  0  0  0  0  0  0  0  0  0
    3.4136   -2.7909    4.4670 H   0  0  0  0  0  0  0  0  0  0  0  0
   -1.3734   -4.0505   -2.1335 H   0  0  0  0  0  0  0  0  0  0  0  0
   -3.3833   -6.2078    0.9438 H   0  0  0  0  0  0  0  0  0  0  0  0
  1  2  1  0  0  0  0
  1  3  2  0  0  0  0
  2  4  2  0  0  0  0
  3  7  1  0  0  0  0
  4  9  1  0  0  0  0
  5  6  2  0  0  0  0
  5 10  1  0  0  0  0
  6 11  1  0  0  0  0
  7  9  2  0  0  0  0
  7 13  1  0  0  0  0
  8 10  2  0  0  0  0
  8 12  1  0  0  0  0
  8 14  1  0  0  0  0
  9 23  1  0  0  0  0
 10 24  1  0  0  0  0
 11 12  2  0  0  0  0
 11 36  1  0  0  0  0
 12 35  1  0  0  0  0
 13 28  1  0  0  0  0
 13 32  2  0  0  0  0
 14 30  1  0  0  0  0
 14 33  2  0  0  0  0
 15 25  1  0  0  0  0
 15 31  1  0  0  0  0
 15 34  2  0  0  0  0
 16 17  1  0  0  0  0
 16 18  1  0  0  0  0
 17 20  1  0  0  0  0
 18 20  1  0  0  0  0
 19 21  1  0  0  0  0
 19 35  1  0  0  0  0
 20 26  1  0  0  0  0
 21 27  1  0  0  0  0
 21 36  1  0  0  0  0
 22 29  1  0  0  0  0
 23 29  1  0  0  0  0
 24 29  1  0  0  0  0
 25 27  1  0  0  0  0
 26 28  1  0  0  0  0
  1 37  1  0  0  0  0
  2 38  1  0  0  0  0
  3 39  1  0  0  0  0
  4 40  1  0  0  0  0
  5 41  1  0  0  0  0
  6 42  1  0  0  0  0
 16 43  1  0  0  0  0
 16 44  1  0  0  0  0
 17 45  1  0  0  0  0
 17 46  1  0  0  0  0
 18 47  1  0  0  0  0
 18 48  1  0  0  0  0
 19 49  1  0  0  0  0
 19 50  1  0  0  0  0
 20 51  1  0  0  0  0
 21 52  1  0  0  0  0
 22 53  1  0  0  0  0
 22 54  1  0  0  0  0
 22 55  1  0  0  0  0
 23 56  1  0  0  0  0
 23 57  1  0  0  0  0
 24 58  1  0  0  0  0
 24 59  1  0  0  0  0
 25 60  1  0  0  0  0
 25 61  1  0  0  0  0
 26 62  1  0  0  0  0
 26 63  1  0  0  0  0
 27 64  1  0  0  0  0
 27 65  1  0  0  0  0
 28 66  1  0  0  0  0
 29 67  1  0  0  0  0
M  CHG  3  29   1  30  -1  31  -1
M  END
$$$$
