@<TRIPOS>MOLECULE
AVX38705_0
   46    48     0     0     0
SMALL
NO_CHARGES

@<TRIPOS>ATOM
      1 C1         -0.9338    0.7920    3.6975 C.ar      1 MOL         0.0000
      2 C2         -0.6897    1.7958    2.7603 C.ar      1 MOL         0.0000
      3 C3         -0.8610   -0.5485    3.3187 C.ar      1 MOL         0.0000
      4 C4         -0.3730    1.4592    1.4442 C.ar      1 MOL         0.0000
      5 C5          4.5606    0.0883   -1.7729 C.ar      1 MOL         0.0000
      6 C6          5.8852   -0.3384   -1.8947 C.ar      1 MOL         0.0000
      7 C7         -0.5443   -0.8851    2.0026 C.ar      1 MOL         0.0000
      8 C8          4.4807   -0.6796    0.5363 C.ar      1 MOL         0.0000
      9 C9         -0.3003    0.1187    1.0654 C.ar      1 MOL         0.0000
     10 C10         3.8624   -0.0812   -0.5643 C.ar      1 MOL         0.0000
     11 C11         6.4725   -0.9261   -0.7932 C.ar      1 MOL         0.0000
     12 C12         5.7891   -1.0920    0.3897 C.ar      1 MOL         0.0000
     13 C13        -0.4758   -2.2926    1.6337 C.2       1 MOL         0.0000
     14 C14         3.7721   -0.8677    1.8124 C.2       1 MOL         0.0000
     15 C15         7.7883   -1.8831    0.6332 C.3       1 MOL         0.0000
     16 C16         0.6609   -4.4864    2.0465 C.3       1 MOL         0.0000
     17 C17         1.5941   -1.5752   -1.7534 C.3       1 MOL         0.0000
     18 C18         0.0417   -0.2149   -0.3568 C.3       1 MOL         0.0000
     19 C19         2.4466    0.3918   -0.4829 C.3       1 MOL         0.0000
     20 N1          0.4575   -3.0809    2.3148 N.am      1 MOL         0.0000
     21 N2          1.4540   -0.7156   -0.5229 N.4       1 MOL         0.0000
     22 O1          3.8330    0.0650    2.6985 O.co2     1 MOL         0.0000
     23 O2         -1.2085   -2.7444    0.7375 O.2       1 MOL         0.0000
     24 O3          3.1146   -1.9589    2.0014 O.co2     1 MOL         0.0000
     25 O4          7.7464   -1.3996   -0.7250 O.3       1 MOL         0.0000
     26 O5          6.5496   -1.6905    1.3466 O.3       1 MOL         0.0000
     27 H1         -1.1802    1.0536    4.7226 H         1 MOL         0.0000
     28 H2         -0.7467    2.8395    3.0558 H         1 MOL         0.0000
     29 H3         -1.0544   -1.3214    4.0582 H         1 MOL         0.0000
     30 H4         -0.1842    2.2490    0.7220 H         1 MOL         0.0000
     31 H5          4.0721    0.5554   -2.6248 H         1 MOL         0.0000
     32 H6          6.4271   -0.2095   -2.8247 H         1 MOL         0.0000
     33 H7          8.0211   -2.9540    0.6174 H         1 MOL         0.0000
     34 H8          8.5870   -1.3569    1.1686 H         1 MOL         0.0000
     35 H9          0.0556   -5.0903    2.7275 H         1 MOL         0.0000
     36 H10         1.7133   -4.7491    2.1840 H         1 MOL         0.0000
     37 H11         0.3728   -4.7204    1.0181 H         1 MOL         0.0000
     38 H12         1.4020   -0.9457   -2.6241 H         1 MOL         0.0000
     39 H13         2.6118   -1.9700   -1.7711 H         1 MOL         0.0000
     40 H14         0.8615   -2.3815   -1.6828 H         1 MOL         0.0000
     41 H15        -0.6173   -0.9966   -0.7497 H         1 MOL         0.0000
     42 H16        -0.0590    0.6629   -1.0042 H         1 MOL         0.0000
     43 H17         2.2602    0.9423    0.4477 H         1 MOL         0.0000
     44 H18         2.1989    1.0610   -1.3165 H         1 MOL         0.0000
     45 H19         1.0744   -2.6466    2.9935 H         1 MOL         0.0000
     46 H20         1.6402   -1.3338    0.2838 H         1 MOL         0.0000
@<TRIPOS>BOND
     1    1    2 ar
     2    1    3 ar
     3    2    4 ar
     4    3    7 ar
     5    4    9 ar
     6    5    6 ar
     7    5   10 ar
     8    6   11 ar
     9    7    9 ar
    10    7   13 1
    11    8   10 ar
    12    8   12 ar
    13    8   14 1
    14    9   18 1
    15   10   19 1
    16   11   12 ar
    17   11   25 1
    18   12   26 1
    19   13   20 am
    20   13   23 2
    21   14   22 1
    22   14   24 2
    23   15   25 1
    24   15   26 1
    25   16   20 1
    26   17   21 1
    27   18   21 1
    28   19   21 1
    29    1   27 1
    30    2   28 1
    31    3   29 1
    32    4   30 1
    33    5   31 1
    34    6   32 1
    35   15   33 1
    36   15   34 1
    37   16   35 1
    38   16   36 1
    39   16   37 1
    40   17   38 1
    41   17   39 1
    42   17   40 1
    43   18   41 1
    44   18   42 1
    45   19   43 1
    46   19   44 1
    47   20   45 1
    48   21   46 1
