@<TRIPOS>MOLECULE
AVX38784_4
   66    68     0     0     0
SMALL
NO_CHARGES

@<TRIPOS>ATOM
      1 C1          0.2734   -6.1537   -2.7387 C.ar      1 MOL         0.0000
      2 C2          0.7632   -5.4151   -3.8157 C.ar      1 MOL         0.0000
      3 C3         -0.8749   -5.7321   -2.0684 C.ar      1 MOL         0.0000
      4 C4          0.1047   -4.2547   -4.2225 C.ar      1 MOL         0.0000
      5 C5         -1.1157    1.4127   -1.5349 C.ar      1 MOL         0.0000
      6 C6         -0.4203    2.5447   -1.1094 C.ar      1 MOL         0.0000
      7 C7         -1.5334   -4.5717   -2.4752 C.ar      1 MOL         0.0000
      8 C8          0.9358    0.1334   -1.5060 C.ar      1 MOL         0.0000
      9 C9         -1.0436   -3.8330   -3.5523 C.ar      1 MOL         0.0000
     10 C10        -0.4396    0.2074   -1.7278 C.ar      1 MOL         0.0000
     11 C11         0.9526    2.4676   -0.8739 C.ar      1 MOL         0.0000
     12 C12         1.6341    1.2684   -1.0930 C.ar      1 MOL         0.0000
     13 C13        -2.7299   -4.1535   -1.7573 C.2       1 MOL         0.0000
     14 C14         1.6495   -1.1421   -1.7202 C.2       1 MOL         0.0000
     15 C15         2.5161    5.2033    2.5787 C.2       1 MOL         0.0000
     16 C16         3.6399    2.4084   -0.8299 C.3       1 MOL         0.0000
     17 C17         2.8756    3.3358    0.1057 C.3       1 MOL         0.0000
     18 C18        -3.3147   -5.4771    1.9956 C.3       1 MOL         0.0000
     19 C19        -3.8414   -1.9654    0.4142 C.3       1 MOL         0.0000
     20 C20        -1.3292   -0.1769   -4.5299 C.3       1 MOL         0.0000
     21 C21        -1.7316   -2.5809   -4.0106 C.3       1 MOL         0.0000
     22 C22        -1.2157   -0.9880   -2.1764 C.3       1 MOL         0.0000
     23 C23         2.7980    5.6312    1.1337 C.3       1 MOL         0.0000
     24 C24         3.5938    4.6665    0.2755 C.3       1 MOL         0.0000
     25 C25        -3.4778   -3.9655    1.9006 C.3       1 MOL         0.0000
     26 C26        -3.6836   -3.4816    0.4595 C.3       1 MOL         0.0000
     27 N1         -2.5873   -3.8831   -0.3925 N.am      1 MOL         0.0000
     28 N2         -1.0008   -1.3248   -3.6097 N.4       1 MOL         0.0000
     29 O1          1.7578   -1.9588   -0.7336 O.co2     1 MOL         0.0000
     30 O2          1.4483    5.6334    3.0947 O.co2     1 MOL         0.0000
     31 O3         -3.8201   -4.0686   -2.3476 O.2       1 MOL         0.0000
     32 O4          2.1352   -1.3863   -2.8849 O.co2     1 MOL         0.0000
     33 O5          3.3998    4.4479    3.0773 O.co2     1 MOL         0.0000
     34 O6          2.9856    1.1381   -0.9109 O.3       1 MOL         0.0000
     35 O7          1.5762    3.6067   -0.4373 O.3       1 MOL         0.0000
     36 H1          0.7857   -7.0576   -2.4215 H         1 MOL         0.0000
     37 H2          1.6576   -5.7438   -4.3370 H         1 MOL         0.0000
     38 H3         -1.2460   -6.3158   -1.2299 H         1 MOL         0.0000
     39 H4          0.4944   -3.6868   -5.0632 H         1 MOL         0.0000
     40 H5         -2.1865    1.4790   -1.7093 H         1 MOL         0.0000
     41 H6         -0.9565    3.4765   -0.9519 H         1 MOL         0.0000
     42 H7          3.7181    2.8228   -1.8431 H         1 MOL         0.0000
     43 H8          4.6540    2.2311   -0.4560 H         1 MOL         0.0000
     44 H9          2.7412    2.8682    1.0906 H         1 MOL         0.0000
     45 H10        -2.4640   -5.8259    1.4022 H         1 MOL         0.0000
     46 H11        -3.1409   -5.7720    3.0354 H         1 MOL         0.0000
     47 H12        -4.2150   -5.9911    1.6440 H         1 MOL         0.0000
     48 H13        -2.9565   -1.4665    0.8225 H         1 MOL         0.0000
     49 H14        -3.9914   -1.6119   -0.6122 H         1 MOL         0.0000
     50 H15        -4.7098   -1.6474    1.0016 H         1 MOL         0.0000
     51 H16        -2.3902    0.0512   -4.4137 H         1 MOL         0.0000
     52 H17        -0.7103    0.6735   -4.2374 H         1 MOL         0.0000
     53 H18        -1.1052   -0.4925   -5.5508 H         1 MOL         0.0000
     54 H19        -1.8237   -2.5565   -5.1017 H         1 MOL         0.0000
     55 H20        -2.7397   -2.5065   -3.5888 H         1 MOL         0.0000
     56 H21        -0.9423   -1.8832   -1.6033 H         1 MOL         0.0000
     57 H22        -2.2955   -0.8355   -2.0523 H         1 MOL         0.0000
     58 H23         3.3669    6.5672    1.1983 H         1 MOL         0.0000
     59 H24         1.8433    5.8687    0.6477 H         1 MOL         0.0000
     60 H25         4.5799    4.4708    0.6934 H         1 MOL         0.0000
     61 H26         3.7307    5.0867   -0.7206 H         1 MOL         0.0000
     62 H27        -4.3405   -3.6729    2.5113 H         1 MOL         0.0000
     63 H28        -2.5948   -3.4848    2.3399 H         1 MOL         0.0000
     64 H29        -4.5868   -3.9430    0.0435 H         1 MOL         0.0000
     65 H30        -1.6869   -4.0295    0.0521 H         1 MOL         0.0000
     66 H31         0.0056   -1.5198   -3.7389 H         1 MOL         0.0000
@<TRIPOS>BOND
     1    1    2 ar
     2    1    3 ar
     3    2    4 ar
     4    3    7 ar
     5    4    9 ar
     6    5    6 ar
     7    5   10 ar
     8    6   11 ar
     9    7    9 ar
    10    7   13 1
    11    8   10 ar
    12    8   12 ar
    13    8   14 1
    14    9   21 1
    15   10   22 1
    16   11   12 ar
    17   11   35 1
    18   12   34 1
    19   13   27 am
    20   13   31 2
    21   14   29 1
    22   14   32 2
    23   15   23 1
    24   15   30 1
    25   15   33 2
    26   16   17 1
    27   16   34 1
    28   17   24 1
    29   17   35 1
    30   18   25 1
    31   19   26 1
    32   20   28 1
    33   21   28 1
    34   22   28 1
    35   23   24 1
    36   25   26 1
    37   26   27 1
    38    1   36 1
    39    2   37 1
    40    3   38 1
    41    4   39 1
    42    5   40 1
    43    6   41 1
    44   16   42 1
    45   16   43 1
    46   17   44 1
    47   18   45 1
    48   18   46 1
    49   18   47 1
    50   19   48 1
    51   19   49 1
    52   19   50 1
    53   20   51 1
    54   20   52 1
    55   20   53 1
    56   21   54 1
    57   21   55 1
    58   22   56 1
    59   22   57 1
    60   23   58 1
    61   23   59 1
    62   24   60 1
    63   24   61 1
    64   25   62 1
    65   25   63 1
    66   26   64 1
    67   27   65 1
    68   28   66 1
