AVX38743_3
  -OEChem-04011314573D

 47 50  0     1  0  0  0  0  0999 V2000
    3.4341    0.3240   -2.8135 C   0  0  0  0  0  0  0  0  0  0  0  0
    3.9968    1.5986   -2.9705 C   0  0  0  0  0  0  0  0  0  0  0  0
    2.2988    0.1394   -2.0202 C   0  0  0  0  0  0  0  0  0  0  0  0
   -0.3020   -1.7261   -1.2528 C   0  0  0  0  0  0  0  0  0  0  0  0
    3.4317    2.7054   -2.3354 C   0  0  0  0  0  0  0  0  0  0  0  0
    0.0112   -3.0685   -1.4676 C   0  0  0  0  0  0  0  0  0  0  0  0
    1.7396    1.2446   -1.3937 C   0  0  0  0  0  0  0  0  0  0  0  0
    0.2425   -1.0462   -0.1627 C   0  0  0  0  0  0  0  0  0  0  0  0
    1.0932   -1.7097    0.7217 C   0  0  0  0  0  0  0  0  0  0  0  0
    2.2998    2.5157   -1.5558 C   0  0  0  0  0  0  0  0  0  0  0  0
    0.8723   -3.7291   -0.5910 C   0  0  0  0  0  0  0  0  0  0  0  0
    1.3955   -3.0559    0.5152 C   0  0  0  0  0  0  0  0  0  0  0  0
    0.5671    1.3569   -0.5301 C   0  0  0  0  0  0  0  0  0  0  0  0
   -0.1048    0.3577    0.0208 C   0  0  0  0  0  0  0  0  0  0  0  0
    1.6672   -0.9981    1.8845 C   0  0  0  0  0  0  0  0  0  0  0  0
    2.0403   -5.5506    4.4146 C   0  0  0  0  0  0  0  0  0  0  0  0
    1.5765    3.5591   -0.7558 C   0  0  0  0  0  0  0  0  0  0  0  0
    2.2907   -5.5081   -0.1269 C   0  0  0  0  0  0  0  0  0  0  0  0
    0.2933    2.8280   -0.3235 C   0  0  1  0  0  0  0  0  0  0  0  0
    2.1777   -5.0885    1.3327 C   0  0  1  0  0  0  0  0  0  0  0  0
    3.2755   -5.1582    3.5955 C   0  0  0  0  0  0  0  0  0  0  0  0
    3.3286   -5.6428    2.1594 C   0  0  0  0  0  0  0  0  0  0  0  0
    2.7937   -0.3982    1.7404 O   0  5  0  0  0  0  0  0  0  0  0  0
    1.6859   -4.7455    5.3188 O   0  5  0  0  0  0  0  0  0  0  0  0
    1.0162   -1.0089    2.9916 O   0  0  0  0  0  0  0  0  0  0  0  0
    1.5141   -6.6467    4.0660 O   0  0  0  0  0  0  0  0  0  0  0  0
    1.1574   -5.0406   -0.8656 O   0  0  0  0  0  0  0  0  0  0  0  0
    2.2195   -3.6582    1.4292 O   0  0  0  0  0  0  0  0  0  0  0  0
   -0.7863    3.2120   -1.1708 O   0  0  0  0  0  0  0  0  0  0  0  0
    3.8858   -0.5281   -3.3142 H   0  0  0  0  0  0  0  0  0  0  0  0
    4.8817    1.7226   -3.5886 H   0  0  0  0  0  0  0  0  0  0  0  0
    1.8733   -0.8527   -1.9101 H   0  0  0  0  0  0  0  0  0  0  0  0
   -0.9696   -1.2230   -1.9485 H   0  0  0  0  0  0  0  0  0  0  0  0
    3.8747    3.6892   -2.4494 H   0  0  0  0  0  0  0  0  0  0  0  0
   -0.4102   -3.5881   -2.3239 H   0  0  0  0  0  0  0  0  0  0  0  0
   -0.9743    0.5690    0.6186 H   0  0  0  0  0  0  0  0  0  0  0  0
    2.1851    3.8234    0.1162 H   0  0  0  0  0  0  0  0  0  0  0  0
    1.3714    4.4506   -1.3564 H   0  0  0  0  0  0  0  0  0  0  0  0
    3.1992   -5.1111   -0.5980 H   0  0  0  0  0  0  0  0  0  0  0  0
    2.3121   -6.5993   -0.2161 H   0  0  0  0  0  0  0  0  0  0  0  0
    0.0244    3.0671    0.7110 H   0  0  0  0  0  0  0  0  0  0  0  0
    1.2260   -5.4301    1.7619 H   0  0  0  0  0  0  0  0  0  0  0  0
    4.1388   -5.5833    4.1229 H   0  0  0  0  0  0  0  0  0  0  0  0
    3.3843   -4.0669    3.6295 H   0  0  0  0  0  0  0  0  0  0  0  0
    3.3008   -6.7293    2.0967 H   0  0  0  0  0  0  0  0  0  0  0  0
    4.2523   -5.3046    1.6904 H   0  0  0  0  0  0  0  0  0  0  0  0
   -0.9368    4.1574   -1.0153 H   0  0  0  0  0  0  0  0  0  0  0  0
  1  2  1  0  0  0  0
  1  3  2  0  0  0  0
  2  5  2  0  0  0  0
  3  7  1  0  0  0  0
  4  6  2  0  0  0  0
  4  8  1  0  0  0  0
  5 10  1  0  0  0  0
  6 11  1  0  0  0  0
  7 10  2  0  0  0  0
  7 13  1  0  0  0  0
  8  9  2  0  0  0  0
  8 14  1  0  0  0  0
  9 12  1  0  0  0  0
  9 15  1  0  0  0  0
 10 17  1  0  0  0  0
 11 12  2  0  0  0  0
 11 27  1  0  0  0  0
 12 28  1  0  0  0  0
 13 14  2  0  0  0  0
 13 19  1  0  0  0  0
 15 23  1  0  0  0  0
 15 25  2  0  0  0  0
 16 21  1  0  0  0  0
 16 24  1  0  0  0  0
 16 26  2  0  0  0  0
 17 19  1  0  0  0  0
 18 20  1  0  0  0  0
 18 27  1  0  0  0  0
 19 29  1  0  0  0  0
 20 22  1  0  0  0  0
 20 28  1  0  0  0  0
 21 22  1  0  0  0  0
  1 30  1  0  0  0  0
  2 31  1  0  0  0  0
  3 32  1  0  0  0  0
  4 33  1  0  0  0  0
  5 34  1  0  0  0  0
  6 35  1  0  0  0  0
 14 36  1  0  0  0  0
 17 37  1  0  0  0  0
 17 38  1  0  0  0  0
 18 39  1  0  0  0  0
 18 40  1  0  0  0  0
 19 41  1  0  0  0  0
 20 42  1  0  0  0  0
 21 43  1  0  0  0  0
 21 44  1  0  0  0  0
 22 45  1  0  0  0  0
 22 46  1  0  0  0  0
 29 47  1  0  0  0  0
M  CHG  2  23  -1  24  -1
M  END
$$$$
