@<TRIPOS>MOLECULE
AVX38784_3
   66    68     0     0     0
SMALL
NO_CHARGES

@<TRIPOS>ATOM
      1 C1          7.1225   -2.1197    4.8276 C.ar      1 MOL         0.0000
      2 C2          7.4569   -1.8441    3.5018 C.ar      1 MOL         0.0000
      3 C3          5.7995   -1.9988    5.2527 C.ar      1 MOL         0.0000
      4 C4          6.4684   -1.4476    2.6011 C.ar      1 MOL         0.0000
      5 C5          0.6033   -3.5877    1.6501 C.ar      1 MOL         0.0000
      6 C6         -0.2485   -4.6424    1.3213 C.ar      1 MOL         0.0000
      7 C7          4.8109   -1.6023    4.3521 C.ar      1 MOL         0.0000
      8 C8          0.5160   -2.7967   -0.6329 C.ar      1 MOL         0.0000
      9 C9          5.1454   -1.3266    3.0262 C.ar      1 MOL         0.0000
     10 C10         0.9894   -2.6694    0.6732 C.ar      1 MOL         0.0000
     11 C11        -0.7112   -4.7783    0.0121 C.ar      1 MOL         0.0000
     12 C12        -0.3469   -3.8433   -0.9593 C.ar      1 MOL         0.0000
     13 C13         3.4375   -1.4833    4.8226 C.2       1 MOL         0.0000
     14 C14         0.9196   -1.8170   -1.6623 C.2       1 MOL         0.0000
     15 C15        -3.5726   -9.5069   -1.3744 C.2       1 MOL         0.0000
     16 C16        -1.9182   -4.7791   -2.3895 C.3       1 MOL         0.0000
     17 C17        -1.6549   -6.0907   -1.6614 C.3       1 MOL         0.0000
     18 C18         1.3574    1.8907    4.1543 C.3       1 MOL         0.0000
     19 C19         1.6809   -0.3209    7.3347 C.3       1 MOL         0.0000
     20 C20         3.9388   -2.9292    0.6058 C.3       1 MOL         0.0000
     21 C21         4.1025   -0.8977    2.0366 C.3       1 MOL         0.0000
     22 C22         1.9102   -1.5568    1.0567 C.3       1 MOL         0.0000
     23 C23        -2.5090   -8.4144   -1.2133 C.3       1 MOL         0.0000
     24 C24        -2.7997   -7.0734   -1.8592 C.3       1 MOL         0.0000
     25 C25         1.3255    1.4934    5.6246 C.3       1 MOL         0.0000
     26 C26         1.7270    0.0303    5.8513 C.3       1 MOL         0.0000
     27 N1          3.0465   -0.2385    5.3265 N.am      1 MOL         0.0000
     28 N2          3.2198   -2.0313    1.5800 N.4       1 MOL         0.0000
     29 O1          0.1955   -0.7684   -1.8299 O.co2     1 MOL         0.0000
     30 O2         -3.3236  -10.6187   -0.8329 O.co2     1 MOL         0.0000
     31 O3          2.6735   -2.4627    4.7872 O.2       1 MOL         0.0000
     32 O4          1.9792   -2.0510   -2.3511 O.co2     1 MOL         0.0000
     33 O5         -4.5913   -9.1455   -2.0314 O.co2     1 MOL         0.0000
     34 O6         -0.7945   -3.9035   -2.2527 O.3       1 MOL         0.0000
     35 O7         -1.5279   -5.8455   -0.2539 O.3       1 MOL         0.0000
     36 H1          7.8919   -2.4287    5.5294 H         1 MOL         0.0000
     37 H2          8.4873   -1.9382    3.1714 H         1 MOL         0.0000
     38 H3          5.5518   -2.2154    6.2888 H         1 MOL         0.0000
     39 H4          6.7396   -1.2357    1.5702 H         1 MOL         0.0000
     40 H5          0.9650   -3.4929    2.6707 H         1 MOL         0.0000
     41 H6         -0.5351   -5.3593    2.0859 H         1 MOL         0.0000
     42 H7         -2.0688   -4.9534   -3.4601 H         1 MOL         0.0000
     43 H8         -2.8069   -4.2658   -2.0003 H         1 MOL         0.0000
     44 H9         -0.7194   -6.5481   -2.0116 H         1 MOL         0.0000
     45 H10         0.6882    1.2649    3.5560 H         1 MOL         0.0000
     46 H11         1.0357    2.9307    4.0387 H         1 MOL         0.0000
     47 H12         2.3694    1.8023    3.7465 H         1 MOL         0.0000
     48 H13         2.3603    0.3164    7.9100 H         1 MOL         0.0000
     49 H14         0.6703   -0.1993    7.7407 H         1 MOL         0.0000
     50 H15         1.9770   -1.3633    7.4966 H         1 MOL         0.0000
     51 H16         4.1510   -2.3457   -0.2920 H         1 MOL         0.0000
     52 H17         4.8614   -3.2674    1.0814 H         1 MOL         0.0000
     53 H18         3.2819   -3.7714    0.3802 H         1 MOL         0.0000
     54 H19         3.4410   -0.1362    2.4634 H         1 MOL         0.0000
     55 H20         4.5616   -0.4744    1.1366 H         1 MOL         0.0000
     56 H21         2.1352   -0.9080    0.2007 H         1 MOL         0.0000
     57 H22         1.4729   -0.9261    1.8413 H         1 MOL         0.0000
     58 H23        -1.5927   -8.8117   -1.6679 H         1 MOL         0.0000
     59 H24        -2.3049   -8.2815   -0.1434 H         1 MOL         0.0000
     60 H25        -3.7083   -6.6217   -1.4649 H         1 MOL         0.0000
     61 H26        -2.9295   -7.2023   -2.9333 H         1 MOL         0.0000
     62 H27         2.0110    2.1500    6.1740 H         1 MOL         0.0000
     63 H28         0.3186    1.6763    6.0200 H         1 MOL         0.0000
     64 H29         1.0358   -0.6273    5.3114 H         1 MOL         0.0000
     65 H30         3.7297    0.5091    5.3903 H         1 MOL         0.0000
     66 H31         3.0316   -2.6060    2.4177 H         1 MOL         0.0000
@<TRIPOS>BOND
     1    1    2 ar
     2    1    3 ar
     3    2    4 ar
     4    3    7 ar
     5    4    9 ar
     6    5    6 ar
     7    5   10 ar
     8    6   11 ar
     9    7    9 ar
    10    7   13 1
    11    8   10 ar
    12    8   12 ar
    13    8   14 1
    14    9   21 1
    15   10   22 1
    16   11   12 ar
    17   11   35 1
    18   12   34 1
    19   13   27 am
    20   13   31 2
    21   14   29 1
    22   14   32 2
    23   15   23 1
    24   15   30 1
    25   15   33 2
    26   16   17 1
    27   16   34 1
    28   17   24 1
    29   17   35 1
    30   18   25 1
    31   19   26 1
    32   20   28 1
    33   21   28 1
    34   22   28 1
    35   23   24 1
    36   25   26 1
    37   26   27 1
    38    1   36 1
    39    2   37 1
    40    3   38 1
    41    4   39 1
    42    5   40 1
    43    6   41 1
    44   16   42 1
    45   16   43 1
    46   17   44 1
    47   18   45 1
    48   18   46 1
    49   18   47 1
    50   19   48 1
    51   19   49 1
    52   19   50 1
    53   20   51 1
    54   20   52 1
    55   20   53 1
    56   21   54 1
    57   21   55 1
    58   22   56 1
    59   22   57 1
    60   23   58 1
    61   23   59 1
    62   24   60 1
    63   24   61 1
    64   25   62 1
    65   25   63 1
    66   26   64 1
    67   27   65 1
    68   28   66 1
