@<TRIPOS>MOLECULE
AVX38781_1
   77    80     0     0     0
SMALL
NO_CHARGES

@<TRIPOS>ATOM
      1 C1          4.6094   -6.1174   -5.3479 C.ar      1 MOL         0.0000
      2 C2          3.7780   -6.5376   -4.3098 C.ar      1 MOL         0.0000
      3 C3          4.0610   -5.5170   -6.4812 C.ar      1 MOL         0.0000
      4 C4          2.3981   -6.3577   -4.4050 C.ar      1 MOL         0.0000
      5 C5         -1.7356   -9.1421   -8.0817 C.ar      1 MOL         0.0000
      6 C6         -1.9681  -10.5012   -8.2940 C.ar      1 MOL         0.0000
      7 C7          2.6810   -5.3371   -6.5765 C.ar      1 MOL         0.0000
      8 C8          0.4815   -9.6434   -7.2578 C.ar      1 MOL         0.0000
      9 C9          1.8496   -5.7574   -5.5384 C.ar      1 MOL         0.0000
     10 C10        -0.5146   -8.7143   -7.5591 C.ar      1 MOL         0.0000
     11 C11        -0.9774  -11.4319   -7.9797 C.ar      1 MOL         0.0000
     12 C12         0.2548  -11.0014   -7.4827 C.ar      1 MOL         0.0000
     13 C13        -2.4047   -6.0138   -3.1115 C.2       1 MOL         0.0000
     14 C14        -1.8964   -6.9500   -3.9202 C.2       1 MOL         0.0000
     15 C15         2.1346   -4.7081   -7.7713 C.2       1 MOL         0.0000
     16 C16         1.7763   -9.1857   -6.7134 C.2       1 MOL         0.0000
     17 C17        -2.2960  -16.9713   -8.1956 C.2       1 MOL         0.0000
     18 C18        -1.4268   -6.4675  -12.5378 C.3       1 MOL         0.0000
     19 C19        -1.5159   -5.0235  -12.0541 C.3       1 MOL         0.0000
     20 C20        -0.7479   -7.3637  -11.5067 C.3       1 MOL         0.0000
     21 C21        -0.1471   -4.4782  -11.6531 C.3       1 MOL         0.0000
     22 C22         0.6221   -6.8223  -11.1045 C.3       1 MOL         0.0000
     23 C23         1.0755  -13.1541   -7.7698 C.3       1 MOL         0.0000
     24 C24         0.5353   -5.3724  -10.6091 C.3       1 MOL         0.0000
     25 C25        -0.3513  -13.6254   -7.5216 C.3       1 MOL         0.0000
     26 C26         0.3621   -5.5767   -5.6147 C.3       1 MOL         0.0000
     27 C27        -0.3016   -7.2524   -7.3352 C.3       1 MOL         0.0000
     28 C28        -1.7962   -6.8051   -5.4030 C.3       1 MOL         0.0000
     29 C29        -1.9616  -15.5463   -7.7390 C.3       1 MOL         0.0000
     30 C30         1.9234   -4.8362  -10.2641 C.3       1 MOL         0.0000
     31 C31        -0.5713  -15.0319   -8.0592 C.3       1 MOL         0.0000
     32 N1          2.3784   -5.3474   -8.9912 N.am      1 MOL         0.0000
     33 N2         -0.3747   -6.8601   -5.9018 N.4       1 MOL         0.0000
     34 O1          2.7218   -8.8995   -7.5358 O.co2     1 MOL         0.0000
     35 O2         -3.4549  -17.3908   -7.9266 O.co2     1 MOL         0.0000
     36 O3          1.5022   -3.6417   -7.6876 O.2       1 MOL         0.0000
     37 O4          1.9079   -9.0914   -5.4384 O.co2     1 MOL         0.0000
     38 O5         -1.3547  -17.5537   -8.8077 O.co2     1 MOL         0.0000
     39 O6          1.2781  -11.8629   -7.1869 O.3       1 MOL         0.0000
     40 O7         -1.2723  -12.7530   -8.1909 O.3       1 MOL         0.0000
     41 H1          5.6842   -6.2571   -5.2742 H         1 MOL         0.0000
     42 H2          4.2057   -7.0052   -3.4276 H         1 MOL         0.0000
     43 H3          4.7195   -5.1948   -7.2839 H         1 MOL         0.0000
     44 H4          1.7593   -6.6883   -3.5903 H         1 MOL         0.0000
     45 H5         -2.5151   -8.4239   -8.3224 H         1 MOL         0.0000
     46 H6         -2.9259  -10.8262   -8.6908 H         1 MOL         0.0000
     47 H7         -2.4459   -6.1767   -2.0400 H         1 MOL         0.0000
     48 H8         -2.7850   -5.0751   -3.4987 H         1 MOL         0.0000
     49 H9         -1.5236   -7.8714   -3.4804 H         1 MOL         0.0000
     50 H10        -2.4322   -6.8475  -12.7514 H         1 MOL         0.0000
     51 H11        -0.8636   -6.5028  -13.4784 H         1 MOL         0.0000
     52 H12        -1.9457   -4.3969  -12.8439 H         1 MOL         0.0000
     53 H13        -2.1967   -4.9669  -11.1957 H         1 MOL         0.0000
     54 H14        -1.3840   -7.4434  -10.6165 H         1 MOL         0.0000
     55 H15        -0.6398   -8.3757  -11.9132 H         1 MOL         0.0000
     56 H16         0.4848   -4.3989  -12.5471 H         1 MOL         0.0000
     57 H17        -0.2642   -3.4624  -11.2568 H         1 MOL         0.0000
     58 H18         1.0477   -7.4608  -10.3212 H         1 MOL         0.0000
     59 H19         1.2999   -6.8826  -11.9658 H         1 MOL         0.0000
     60 H20         1.7956  -13.8381   -7.3084 H         1 MOL         0.0000
     61 H21         1.3054  -13.0906   -8.8412 H         1 MOL         0.0000
     62 H22        -0.0570   -5.3514   -9.6878 H         1 MOL         0.0000
     63 H23        -0.5853  -13.6065   -6.4484 H         1 MOL         0.0000
     64 H24        -0.0384   -5.1882   -4.6722 H         1 MOL         0.0000
     65 H25         0.0894   -4.8730   -6.4085 H         1 MOL         0.0000
     66 H26         0.6838   -6.9300   -7.6950 H         1 MOL         0.0000
     67 H27        -1.0557   -6.6517   -7.8599 H         1 MOL         0.0000
     68 H28        -2.1949   -5.8351   -5.7153 H         1 MOL         0.0000
     69 H29        -2.3378   -7.5927   -5.9364 H         1 MOL         0.0000
     70 H30        -2.0757  -15.5413   -6.6477 H         1 MOL         0.0000
     71 H31        -2.7190  -14.8636   -8.1441 H         1 MOL         0.0000
     72 H32         1.9072   -3.7441  -10.1987 H         1 MOL         0.0000
     73 H33         2.6536   -5.1330  -11.0227 H         1 MOL         0.0000
     74 H34        -0.3797  -15.0208   -9.1308 H         1 MOL         0.0000
     75 H35         0.1754  -15.6739   -7.5928 H         1 MOL         0.0000
     76 H36         2.9546   -6.1826   -9.0086 H         1 MOL         0.0000
     77 H37         0.0989   -7.5945   -5.3507 H         1 MOL         0.0000
@<TRIPOS>BOND
     1    1    2 ar
     2    1    3 ar
     3    2    4 ar
     4    3    7 ar
     5    4    9 ar
     6    5    6 ar
     7    5   10 ar
     8    6   11 ar
     9    7    9 ar
    10    7   15 1
    11    8   10 ar
    12    8   12 ar
    13    8   16 1
    14    9   26 1
    15   10   27 1
    16   11   12 ar
    17   11   40 1
    18   12   39 1
    19   13   14 2
    20   14   28 1
    21   15   32 am
    22   15   36 2
    23   16   34 1
    24   16   37 2
    25   17   29 1
    26   17   35 1
    27   17   38 2
    28   18   19 1
    29   18   20 1
    30   19   21 1
    31   20   22 1
    32   21   24 1
    33   22   24 1
    34   23   25 1
    35   23   39 1
    36   24   30 1
    37   25   31 1
    38   25   40 1
    39   26   33 1
    40   27   33 1
    41   28   33 1
    42   29   31 1
    43   30   32 1
    44    1   41 1
    45    2   42 1
    46    3   43 1
    47    4   44 1
    48    5   45 1
    49    6   46 1
    50   13   47 1
    51   13   48 1
    52   14   49 1
    53   18   50 1
    54   18   51 1
    55   19   52 1
    56   19   53 1
    57   20   54 1
    58   20   55 1
    59   21   56 1
    60   21   57 1
    61   22   58 1
    62   22   59 1
    63   23   60 1
    64   23   61 1
    65   24   62 1
    66   25   63 1
    67   26   64 1
    68   26   65 1
    69   27   66 1
    70   27   67 1
    71   28   68 1
    72   28   69 1
    73   29   70 1
    74   29   71 1
    75   30   72 1
    76   30   73 1
    77   31   74 1
    78   31   75 1
    79   32   76 1
    80   33   77 1
