AVX38705_1
  -OEChem-04011314563D

 46 48  0     1  0  0  0  0  0999 V2000
    6.5031   -1.1708   -0.8153 C   0  0  0  0  0  0  0  0  0  0  0  0
    5.8987   -0.5339   -1.8991 C   0  0  0  0  0  0  0  0  0  0  0  0
    5.8085   -1.3133    0.3860 C   0  0  0  0  0  0  0  0  0  0  0  0
    4.5997   -0.0393   -1.7816 C   0  0  0  0  0  0  0  0  0  0  0  0
   -0.2754    1.5549    1.4041 C   0  0  0  0  0  0  0  0  0  0  0  0
   -0.5791    1.9424    2.7114 C   0  0  0  0  0  0  0  0  0  0  0  0
    4.5096   -0.8188    0.5034 C   0  0  0  0  0  0  0  0  0  0  0  0
   -0.5300   -0.7932    1.9953 C   0  0  0  0  0  0  0  0  0  0  0  0
    3.9051   -0.1818   -0.5804 C   0  0  0  0  0  0  0  0  0  0  0  0
   -0.2510    0.1950    1.0481 C   0  0  0  0  0  0  0  0  0  0  0  0
   -0.8507    0.9471    3.6276 C   0  0  0  0  0  0  0  0  0  0  0  0
   -0.8269   -0.3840    3.2791 C   0  0  0  0  0  0  0  0  0  0  0  0
    3.8073   -0.9803    1.7693 C   0  0  0  0  0  0  0  0  0  0  0  0
   -0.5120   -2.2232    1.6478 C   0  0  0  0  0  0  0  0  0  0  0  0
   -1.3363   -0.2308    5.3764 C   0  0  0  0  0  0  0  0  0  0  0  0
    3.3406    0.0191    4.0184 C   0  0  0  0  0  0  0  0  0  0  0  0
    1.5941   -1.5752   -1.7534 C   0  0  0  0  0  0  0  0  0  0  0  0
    2.5096    0.3600   -0.4816 C   0  0  0  0  0  0  0  0  0  0  0  0
    0.0793   -0.1698   -0.3635 C   0  0  0  0  0  0  0  0  0  0  0  0
    3.9542    0.0442    2.7101 N   0  0  0  0  0  0  0  0  0  0  0  0
    1.4540   -0.7156   -0.5229 N   0  3  1  0  0  0  0  0  0  0  0  0
   -1.5998   -2.7740    1.2330 O   0  5  0  0  0  0  0  0  0  0  0  0
    3.1318   -2.0001    1.9882 O   0  0  0  0  0  0  0  0  0  0  0  0
    0.5908   -2.8771    1.7702 O   0  0  0  0  0  0  0  0  0  0  0  0
   -1.1654    1.1327    4.9384 O   0  0  0  0  0  0  0  0  0  0  0  0
   -1.1235   -1.1985    4.3282 O   0  0  0  0  0  0  0  0  0  0  0  0
    7.5146   -1.5563   -0.9063 H   0  0  0  0  0  0  0  0  0  0  0  0
    6.4401   -0.4230   -2.8341 H   0  0  0  0  0  0  0  0  0  0  0  0
    6.2910   -1.8106    1.2235 H   0  0  0  0  0  0  0  0  0  0  0  0
    4.1379    0.4549   -2.6323 H   0  0  0  0  0  0  0  0  0  0  0  0
   -0.0574    2.3180    0.6607 H   0  0  0  0  0  0  0  0  0  0  0  0
   -0.5990    2.9898    2.9901 H   0  0  0  0  0  0  0  0  0  0  0  0
   -0.6265   -0.4304    6.1874 H   0  0  0  0  0  0  0  0  0  0  0  0
   -2.3551   -0.3503    5.7627 H   0  0  0  0  0  0  0  0  0  0  0  0
    2.3824    0.5447    3.9942 H   0  0  0  0  0  0  0  0  0  0  0  0
    3.9908    0.5063    4.7502 H   0  0  0  0  0  0  0  0  0  0  0  0
    3.1680   -1.0129    4.3352 H   0  0  0  0  0  0  0  0  0  0  0  0
    1.4020   -0.9457   -2.6241 H   0  0  0  0  0  0  0  0  0  0  0  0
    2.6118   -1.9700   -1.7711 H   0  0  0  0  0  0  0  0  0  0  0  0
    0.8615   -2.3815   -1.6828 H   0  0  0  0  0  0  0  0  0  0  0  0
    2.3632    0.9085    0.4551 H   0  0  0  0  0  0  0  0  0  0  0  0
    2.2922    1.0459   -1.3074 H   0  0  0  0  0  0  0  0  0  0  0  0
   -0.6053   -0.9346   -0.7511 H   0  0  0  0  0  0  0  0  0  0  0  0
    0.0116    0.7002   -1.0288 H   0  0  0  0  0  0  0  0  0  0  0  0
    4.5686    0.8249    2.5033 H   0  0  0  0  0  0  0  0  0  0  0  0
    1.6402   -1.3338    0.2838 H   0  0  0  0  0  0  0  0  0  0  0  0
  1  2  1  0  0  0  0
  1  3  2  0  0  0  0
  2  4  2  0  0  0  0
  3  7  1  0  0  0  0
  4  9  1  0  0  0  0
  5  6  2  0  0  0  0
  5 10  1  0  0  0  0
  6 11  1  0  0  0  0
  7  9  2  0  0  0  0
  7 13  1  0  0  0  0
  8 10  2  0  0  0  0
  8 12  1  0  0  0  0
  8 14  1  0  0  0  0
  9 18  1  0  0  0  0
 10 19  1  0  0  0  0
 11 12  2  0  0  0  0
 11 25  1  0  0  0  0
 12 26  1  0  0  0  0
 13 20  1  0  0  0  0
 13 23  2  0  0  0  0
 14 22  1  0  0  0  0
 14 24  2  0  0  0  0
 15 25  1  0  0  0  0
 15 26  1  0  0  0  0
 16 20  1  0  0  0  0
 17 21  1  0  0  0  0
 18 21  1  0  0  0  0
 19 21  1  0  0  0  0
  1 27  1  0  0  0  0
  2 28  1  0  0  0  0
  3 29  1  0  0  0  0
  4 30  1  0  0  0  0
  5 31  1  0  0  0  0
  6 32  1  0  0  0  0
 15 33  1  0  0  0  0
 15 34  1  0  0  0  0
 16 35  1  0  0  0  0
 16 36  1  0  0  0  0
 16 37  1  0  0  0  0
 17 38  1  0  0  0  0
 17 39  1  0  0  0  0
 17 40  1  0  0  0  0
 18 41  1  0  0  0  0
 18 42  1  0  0  0  0
 19 43  1  0  0  0  0
 19 44  1  0  0  0  0
 20 45  1  0  0  0  0
 21 46  1  0  0  0  0
M  CHG  2  21   1  22  -1
M  END
$$$$
