AVX38708_1
  -OEChem-04011314563D

 56 59  0     1  0  0  0  0  0999 V2000
    6.1588   -2.5570    2.0955 C   0  0  0  0  0  0  0  0  0  0  0  0
   -0.2060    3.4966    1.7800 C   0  0  0  0  0  0  0  0  0  0  0  0
    4.9414   -3.0978    1.6821 C   0  0  0  0  0  0  0  0  0  0  0  0
    6.1840   -1.5614    3.0722 C   0  0  0  0  0  0  0  0  0  0  0  0
   -0.5107    3.4438    0.4199 C   0  0  0  0  0  0  0  0  0  0  0  0
    0.1823    2.3383    2.4533 C   0  0  0  0  0  0  0  0  0  0  0  0
    3.7491   -2.6430    2.2453 C   0  0  0  0  0  0  0  0  0  0  0  0
    4.9917   -1.1067    3.6355 C   0  0  0  0  0  0  0  0  0  0  0  0
   -0.4272    2.2326   -0.2670 C   0  0  0  0  0  0  0  0  0  0  0  0
    3.7794   -0.9957   -3.1742 C   0  0  0  0  0  0  0  0  0  0  0  0
    5.1025   -1.3375   -3.4640 C   0  0  0  0  0  0  0  0  0  0  0  0
    0.2657    1.1272    1.7665 C   0  0  0  0  0  0  0  0  0  0  0  0
    4.4880    0.2555   -1.2093 C   0  0  0  0  0  0  0  0  0  0  0  0
    3.7742   -1.6475    3.2220 C   0  0  0  0  0  0  0  0  0  0  0  0
   -0.0390    1.0743    0.4063 C   0  0  0  0  0  0  0  0  0  0  0  0
    3.4739   -0.2036   -2.0533 C   0  0  0  0  0  0  0  0  0  0  0  0
    6.0850   -0.8714   -2.6149 C   0  0  0  0  0  0  0  0  0  0  0  0
    5.7861   -0.0961   -1.5178 C   0  0  0  0  0  0  0  0  0  0  0  0
    0.6730   -0.0673    2.4939 C   0  0  0  0  0  0  0  0  0  0  0  0
    4.1947    1.0865   -0.0306 C   0  0  0  0  0  0  0  0  0  0  0  0
    7.9293   -0.3834   -1.5939 C   0  0  0  0  0  0  0  0  0  0  0  0
    1.5592   -2.1269   -0.8594 C   0  0  0  0  0  0  0  0  0  0  0  0
    2.4912   -1.1574    3.8285 C   0  0  0  0  0  0  0  0  0  0  0  0
    0.0417   -0.2149   -0.3568 C   0  0  0  0  0  0  0  0  0  0  0  0
    2.0430    0.1356   -1.7849 C   0  0  0  0  0  0  0  0  0  0  0  0
    1.9364   -0.0434    3.0935 N   0  0  0  0  0  0  0  0  0  0  0  0
    1.4579   -0.6366   -0.6560 N   0  3  2  0  0  0  0  0  0  0  0  0
    4.1748    2.3673   -0.1646 O   0  5  0  0  0  0  0  0  0  0  0  0
   -0.0763   -1.0571    2.5476 O   0  0  0  0  0  0  0  0  0  0  0  0
    3.9678    0.5058    1.0964 O   0  0  0  0  0  0  0  0  0  0  0  0
    7.4208   -1.1005   -2.7373 O   0  0  0  0  0  0  0  0  0  0  0  0
    6.8972    0.2569   -0.8159 O   0  0  0  0  0  0  0  0  0  0  0  0
    7.0872   -2.9121    1.6578 H   0  0  0  0  0  0  0  0  0  0  0  0
   -0.2706    4.4397    2.3154 H   0  0  0  0  0  0  0  0  0  0  0  0
    4.9217   -3.8737    0.9223 H   0  0  0  0  0  0  0  0  0  0  0  0
    7.1317   -1.1410    3.3952 H   0  0  0  0  0  0  0  0  0  0  0  0
   -0.8132    4.3460   -0.1038 H   0  0  0  0  0  0  0  0  0  0  0  0
    0.4161    2.3925    3.5135 H   0  0  0  0  0  0  0  0  0  0  0  0
    2.8051   -3.0701    1.9168 H   0  0  0  0  0  0  0  0  0  0  0  0
    5.0209   -0.3307    4.3957 H   0  0  0  0  0  0  0  0  0  0  0  0
   -0.6664    2.2025   -1.3267 H   0  0  0  0  0  0  0  0  0  0  0  0
    2.9841   -1.3487   -3.8264 H   0  0  0  0  0  0  0  0  0  0  0  0
    5.3423   -1.9479   -4.3272 H   0  0  0  0  0  0  0  0  0  0  0  0
    8.4685   -1.0873   -0.9497 H   0  0  0  0  0  0  0  0  0  0  0  0
    8.6311    0.3825   -1.9437 H   0  0  0  0  0  0  0  0  0  0  0  0
    0.9828   -2.3822   -1.7505 H   0  0  0  0  0  0  0  0  0  0  0  0
    2.6141   -2.3755   -0.9895 H   0  0  0  0  0  0  0  0  0  0  0  0
    1.1476   -2.6137    0.0269 H   0  0  0  0  0  0  0  0  0  0  0  0
    1.7422   -1.9566    3.8457 H   0  0  0  0  0  0  0  0  0  0  0  0
    2.6443   -0.8329    4.8631 H   0  0  0  0  0  0  0  0  0  0  0  0
   -0.4193   -1.0358    0.2028 H   0  0  0  0  0  0  0  0  0  0  0  0
   -0.4735   -0.1371   -1.3203 H   0  0  0  0  0  0  0  0  0  0  0  0
    1.9228    1.1963   -1.5308 H   0  0  0  0  0  0  0  0  0  0  0  0
    1.4121   -0.0668   -2.6596 H   0  0  0  0  0  0  0  0  0  0  0  0
    2.5327    0.7675    2.9649 H   0  0  0  0  0  0  0  0  0  0  0  0
    2.0101   -0.4226    0.1907 H   0  0  0  0  0  0  0  0  0  0  0  0
  1  3  1  0  0  0  0
  1  4  2  0  0  0  0
  2  5  1  0  0  0  0
  2  6  2  0  0  0  0
  3  7  2  0  0  0  0
  4  8  1  0  0  0  0
  5  9  2  0  0  0  0
  6 12  1  0  0  0  0
  7 14  1  0  0  0  0
  8 14  2  0  0  0  0
  9 15  1  0  0  0  0
 10 11  2  0  0  0  0
 10 16  1  0  0  0  0
 11 17  1  0  0  0  0
 12 15  2  0  0  0  0
 12 19  1  0  0  0  0
 13 16  2  0  0  0  0
 13 18  1  0  0  0  0
 13 20  1  0  0  0  0
 14 23  1  0  0  0  0
 15 24  1  0  0  0  0
 16 25  1  0  0  0  0
 17 18  2  0  0  0  0
 17 31  1  0  0  0  0
 18 32  1  0  0  0  0
 19 26  1  0  0  0  0
 19 29  2  0  0  0  0
 20 28  1  0  0  0  0
 20 30  2  0  0  0  0
 21 31  1  0  0  0  0
 21 32  1  0  0  0  0
 22 27  1  0  0  0  0
 23 26  1  0  0  0  0
 24 27  1  0  0  0  0
 25 27  1  0  0  0  0
  1 33  1  0  0  0  0
  2 34  1  0  0  0  0
  3 35  1  0  0  0  0
  4 36  1  0  0  0  0
  5 37  1  0  0  0  0
  6 38  1  0  0  0  0
  7 39  1  0  0  0  0
  8 40  1  0  0  0  0
  9 41  1  0  0  0  0
 10 42  1  0  0  0  0
 11 43  1  0  0  0  0
 21 44  1  0  0  0  0
 21 45  1  0  0  0  0
 22 46  1  0  0  0  0
 22 47  1  0  0  0  0
 22 48  1  0  0  0  0
 23 49  1  0  0  0  0
 23 50  1  0  0  0  0
 24 51  1  0  0  0  0
 24 52  1  0  0  0  0
 25 53  1  0  0  0  0
 25 54  1  0  0  0  0
 26 55  1  0  0  0  0
 27 56  1  0  0  0  0
M  CHG  2  27   1  28  -1
M  END
$$$$
