@<TRIPOS>MOLECULE
AVX38753_1
   71    74     0     0     0
SMALL
NO_CHARGES

@<TRIPOS>ATOM
      1 C1          2.8954   -7.7181    0.6243 C.ar      1 MOL         0.0000
      2 C2          5.9311    0.0388   -2.1815 C.ar      1 MOL         0.0000
      3 C3          3.2831   -6.8939    1.6808 C.ar      1 MOL         0.0000
      4 C4          3.6245   -7.7170   -0.5649 C.ar      1 MOL         0.0000
      5 C5          4.9945    0.8844   -1.5871 C.ar      1 MOL         0.0000
      6 C6          6.3261   -1.1308   -1.5320 C.ar      1 MOL         0.0000
      7 C7          4.3997   -6.0686    1.5480 C.ar      1 MOL         0.0000
      8 C8          4.7411   -6.8917   -0.6976 C.ar      1 MOL         0.0000
      9 C9          4.4530    0.5606   -0.3431 C.ar      1 MOL         0.0000
     10 C10        -0.1342   -2.7316    1.8471 C.ar      1 MOL         0.0000
     11 C11        -1.0876   -3.7451    1.7464 C.ar      1 MOL         0.0000
     12 C12         5.7845   -1.4546   -0.2880 C.ar      1 MOL         0.0000
     13 C13         0.9782   -3.5729   -0.1279 C.ar      1 MOL         0.0000
     14 C14         5.1287   -6.0675    0.3588 C.ar      1 MOL         0.0000
     15 C15         4.8480   -0.6090    0.3065 C.ar      1 MOL         0.0000
     16 C16         0.9003   -2.6490    0.9145 C.ar      1 MOL         0.0000
     17 C17        -1.0023   -4.6776    0.7122 C.ar      1 MOL         0.0000
     18 C18         0.0173   -4.5783   -0.2372 C.ar      1 MOL         0.0000
     19 C19         3.2005   -1.5819    5.1214 C.2       1 MOL         0.0000
     20 C20         2.5507   -1.8408    3.9814 C.2       1 MOL         0.0000
     21 C21         6.2150   -2.6816    0.3686 C.2       1 MOL         0.0000
     22 C22         2.0697   -3.4764   -1.1187 C.2       1 MOL         0.0000
     23 C23        -4.4983   -9.1761    0.8235 C.2       1 MOL         0.0000
     24 C24        -1.0650   -6.1927   -1.5070 C.3       1 MOL         0.0000
     25 C25        -1.5828   -6.7443   -0.1852 C.3       1 MOL         0.0000
     26 C26         6.3306   -5.1792    0.2152 C.3       1 MOL         0.0000
     27 C27         4.2499   -0.9325    1.6439 C.3       1 MOL         0.0000
     28 C28         1.9102   -1.5569    1.0567 C.3       1 MOL         0.0000
     29 C29         3.0773   -2.7334    2.9064 C.3       1 MOL         0.0000
     30 C30        -3.2848   -8.2425    0.9052 C.3       1 MOL         0.0000
     31 C31        -2.8130   -7.6156   -0.3927 C.3       1 MOL         0.0000
     32 N1          5.9828   -3.8800   -0.3140 N.am      1 MOL         0.0000
     33 N2          3.2198   -2.0313    1.5800 N.4       1 MOL         0.0000
     34 O1          1.8813   -2.7660   -2.1731 O.co2     1 MOL         0.0000
     35 O2         -4.8850   -9.6921    1.9078 O.co2     1 MOL         0.0000
     36 O3          6.7430   -2.6414    1.4928 O.2       1 MOL         0.0000
     37 O4          3.1659   -4.1068   -0.8885 O.co2     1 MOL         0.0000
     38 O5         -4.9764   -9.3039   -0.3405 O.co2     1 MOL         0.0000
     39 O6          0.1349   -5.4426   -1.2936 O.3       1 MOL         0.0000
     40 O7         -1.9553   -5.6612    0.6781 O.3       1 MOL         0.0000
     41 H1          2.0267   -8.3616    0.7283 H         1 MOL         0.0000
     42 H2          6.3530    0.2904   -3.1504 H         1 MOL         0.0000
     43 H3          2.7162   -6.8954    2.6072 H         1 MOL         0.0000
     44 H4          3.3236   -8.3593   -1.3872 H         1 MOL         0.0000
     45 H5          4.6876    1.7951   -2.0932 H         1 MOL         0.0000
     46 H6          7.0575   -1.7809   -2.0052 H         1 MOL         0.0000
     47 H7          4.6942   -5.4296    2.3764 H         1 MOL         0.0000
     48 H8          5.3030   -6.8974   -1.6279 H         1 MOL         0.0000
     49 H9          3.7236    1.2261    0.1111 H         1 MOL         0.0000
     50 H10        -0.2036   -2.0133    2.6598 H         1 MOL         0.0000
     51 H11        -1.8833   -3.8086    2.4835 H         1 MOL         0.0000
     52 H12         2.7625   -0.9274    5.8671 H         1 MOL         0.0000
     53 H13         4.1722   -2.0147    5.3315 H         1 MOL         0.0000
     54 H14         1.5766   -1.3856    3.8223 H         1 MOL         0.0000
     55 H15        -0.8234   -7.0066   -2.1988 H         1 MOL         0.0000
     56 H16        -1.8000   -5.5393   -1.9944 H         1 MOL         0.0000
     57 H17        -0.8046   -7.3303    0.3225 H         1 MOL         0.0000
     58 H18         6.8178   -5.0290    1.1848 H         1 MOL         0.0000
     59 H19         7.0719   -5.6264   -0.4555 H         1 MOL         0.0000
     60 H20         5.0179   -1.2622    2.3517 H         1 MOL         0.0000
     61 H21         3.7510   -0.0583    2.0759 H         1 MOL         0.0000
     62 H22         2.1180   -1.0736    0.0935 H         1 MOL         0.0000
     63 H23         1.5642   -0.7774    1.7476 H         1 MOL         0.0000
     64 H24         2.3912   -3.5695    2.7401 H         1 MOL         0.0000
     65 H25         4.0663   -3.1364    3.1463 H         1 MOL         0.0000
     66 H26        -2.4602   -8.8483    1.3017 H         1 MOL         0.0000
     67 H27        -3.4948   -7.4616    1.6469 H         1 MOL         0.0000
     68 H28        -3.5881   -7.0062   -0.8541 H         1 MOL         0.0000
     69 H29        -2.5368   -8.3970   -1.1001 H         1 MOL         0.0000
     70 H30         5.4909   -3.8597   -1.2014 H         1 MOL         0.0000
     71 H31         3.5872   -2.7334    0.9171 H         1 MOL         0.0000
@<TRIPOS>BOND
     1    1    3 ar
     2    1    4 ar
     3    2    5 ar
     4    2    6 ar
     5    3    7 ar
     6    4    8 ar
     7    5    9 ar
     8    6   12 ar
     9    7   14 ar
    10    8   14 ar
    11    9   15 ar
    12   10   11 ar
    13   10   16 ar
    14   11   17 ar
    15   12   15 ar
    16   12   21 1
    17   13   16 ar
    18   13   18 ar
    19   13   22 1
    20   14   26 1
    21   15   27 1
    22   16   28 1
    23   17   18 ar
    24   17   40 1
    25   18   39 1
    26   19   20 2
    27   20   29 1
    28   21   32 am
    29   21   36 2
    30   22   34 1
    31   22   37 2
    32   23   30 1
    33   23   35 1
    34   23   38 2
    35   24   25 1
    36   24   39 1
    37   25   31 1
    38   25   40 1
    39   26   32 1
    40   27   33 1
    41   28   33 1
    42   29   33 1
    43   30   31 1
    44    1   41 1
    45    2   42 1
    46    3   43 1
    47    4   44 1
    48    5   45 1
    49    6   46 1
    50    7   47 1
    51    8   48 1
    52    9   49 1
    53   10   50 1
    54   11   51 1
    55   19   52 1
    56   19   53 1
    57   20   54 1
    58   24   55 1
    59   24   56 1
    60   25   57 1
    61   26   58 1
    62   26   59 1
    63   27   60 1
    64   27   61 1
    65   28   62 1
    66   28   63 1
    67   29   64 1
    68   29   65 1
    69   30   66 1
    70   30   67 1
    71   31   68 1
    72   31   69 1
    73   32   70 1
    74   33   71 1
