@<TRIPOS>MOLECULE
AVX38780_2
   75    78     0     0     0
SMALL
NO_CHARGES

@<TRIPOS>ATOM
      1 C1          2.1393    2.5424   -4.5505 C.ar      1 MOL         0.0000
      2 C2          1.2941    1.9909   -5.5133 C.ar      1 MOL         0.0000
      3 C3          2.4431    1.8230   -3.3947 C.ar      1 MOL         0.0000
      4 C4          0.7525    0.7201   -5.3203 C.ar      1 MOL         0.0000
      5 C5         -3.2512   -1.9004   -1.0767 C.ar      1 MOL         0.0000
      6 C6         -0.1297   -0.4911    1.4801 C.ar      1 MOL         0.0000
      7 C7          1.1915   -2.4393    0.9357 C.ar      1 MOL         0.0000
      8 C8         -4.5948   -1.8159   -0.7109 C.ar      1 MOL         0.0000
      9 C9         -1.1658   -1.3161    1.9177 C.ar      1 MOL         0.0000
     10 C10         0.1554   -3.2642    1.3734 C.ar      1 MOL         0.0000
     11 C11         1.9015    0.5521   -3.2017 C.ar      1 MOL         0.0000
     12 C12        -3.4112    0.2432   -2.1837 C.ar      1 MOL         0.0000
     13 C13         1.0490   -1.0527    0.9891 C.ar      1 MOL         0.0000
     14 C14         1.0562    0.0006   -4.1645 C.ar      1 MOL         0.0000
     15 C15        -2.6589   -0.8698   -1.8075 C.ar      1 MOL         0.0000
     16 C16        -5.3438   -0.6966   -1.0748 C.ar      1 MOL         0.0000
     17 C17        -4.7582    0.3222   -1.8295 C.ar      1 MOL         0.0000
     18 C18        -1.0233   -2.7026    1.8644 C.ar      1 MOL         0.0000
     19 C19        -0.6786   -4.8716   -3.8546 C.2       1 MOL         0.0000
     20 C20        -1.2017   -3.7925   -3.2623 C.2       1 MOL         0.0000
     21 C21         2.2346   -0.1770   -1.9854 C.2       1 MOL         0.0000
     22 C22        -2.7827    1.3278   -2.9653 C.2       1 MOL         0.0000
     23 C23        -8.6360    0.5551    1.9983 C.2       1 MOL         0.0000
     24 C24        -6.8648    1.2509   -2.1334 C.3       1 MOL         0.0000
     25 C25        -7.2151    0.6528   -0.7773 C.3       1 MOL         0.0000
     26 C26        -1.8218   -4.9159    2.2102 C.3       1 MOL         0.0000
     27 C27         2.1646   -0.1649    0.5186 C.3       1 MOL         0.0000
     28 C28         0.4594   -1.3638   -3.9824 C.3       1 MOL         0.0000
     29 C29        -1.2157   -0.9880   -2.1764 C.3       1 MOL         0.0000
     30 C30        -1.7059   -2.5979   -4.0028 C.3       1 MOL         0.0000
     31 C31        -9.0797   -0.1484    0.7102 C.3       1 MOL         0.0000
     32 C32        -8.7211    0.5280   -0.5991 C.3       1 MOL         0.0000
     33 N1          1.8815    0.4216   -0.7716 N.am      1 MOL         0.0000
     34 N2         -1.0008   -1.3248   -3.6097 N.4       1 MOL         0.0000
     35 O1         -2.2297    2.3003   -2.3324 O.co2     1 MOL         0.0000
     36 O2         -8.3865   -0.1873    2.9873 O.co2     1 MOL         0.0000
     37 O3          2.8240   -1.2691   -2.0483 O.2       1 MOL         0.0000
     38 O4         -2.8133    1.2578   -4.2484 O.co2     1 MOL         0.0000
     39 O5         -8.5620    1.8141    1.9022 O.co2     1 MOL         0.0000
     40 O6         -5.4491    1.4300   -2.2445 O.3       1 MOL         0.0000
     41 O7         -6.6517   -0.6615   -0.6684 O.3       1 MOL         0.0000
     42 O8         -2.0340   -3.5074    2.2926 O.3       1 MOL         0.0000
     43 H1          2.5615    3.5320   -4.7004 H         1 MOL         0.0000
     44 H2          1.0577    2.5517   -6.4130 H         1 MOL         0.0000
     45 H3          3.1022    2.2642   -2.6514 H         1 MOL         0.0000
     46 H4          0.0954    0.2994   -6.0769 H         1 MOL         0.0000
     47 H5         -2.6725   -2.7723   -0.7833 H         1 MOL         0.0000
     48 H6         -0.2493    0.5880    1.5252 H         1 MOL         0.0000
     49 H7          2.1063   -2.8857    0.5546 H         1 MOL         0.0000
     50 H8         -5.0453   -2.6183   -0.1331 H         1 MOL         0.0000
     51 H9         -2.0816   -0.8725    2.2995 H         1 MOL         0.0000
     52 H10         0.2726   -4.3434    1.3296 H         1 MOL         0.0000
     53 H11        -0.3334   -5.7111   -3.2610 H         1 MOL         0.0000
     54 H12        -0.5865   -4.9385   -4.9329 H         1 MOL         0.0000
     55 H13        -1.2762   -3.7783   -2.1781 H         1 MOL         0.0000
     56 H14        -7.1990    0.6124   -2.9611 H         1 MOL         0.0000
     57 H15        -7.3297    2.2351   -2.2542 H         1 MOL         0.0000
     58 H16        -6.8037    1.2669    0.0353 H         1 MOL         0.0000
     59 H17        -2.7047   -5.4406    2.5834 H         1 MOL         0.0000
     60 H18        -0.9450   -5.1885    2.8029 H         1 MOL         0.0000
     61 H19        -1.6526   -5.1893    1.1660 H         1 MOL         0.0000
     62 H20         2.3351    0.6507    1.2298 H         1 MOL         0.0000
     63 H21         3.1025   -0.7239    0.4337 H         1 MOL         0.0000
     64 H22         0.5337   -1.9544   -4.9018 H         1 MOL         0.0000
     65 H23         0.9721   -1.9169   -3.1881 H         1 MOL         0.0000
     66 H24        -0.6760   -0.0500   -1.9941 H         1 MOL         0.0000
     67 H25        -0.7156   -1.7732   -1.5950 H         1 MOL         0.0000
     68 H26        -2.7674   -2.4409   -3.7881 H         1 MOL         0.0000
     69 H27        -1.5800   -2.6948   -5.0858 H         1 MOL         0.0000
     70 H28       -10.1737   -0.2168    0.7616 H         1 MOL         0.0000
     71 H29        -8.6930   -1.1751    0.7226 H         1 MOL         0.0000
     72 H30        -9.1569    1.5228   -0.6742 H         1 MOL         0.0000
     73 H31        -9.0950   -0.0643   -1.4339 H         1 MOL         0.0000
     74 H32         1.4582    1.3438   -0.7765 H         1 MOL         0.0000
     75 H33        -1.4233   -0.5712   -4.1762 H         1 MOL         0.0000
@<TRIPOS>BOND
     1    1    2 ar
     2    1    3 ar
     3    2    4 ar
     4    3   11 ar
     5    4   14 ar
     6    5    8 ar
     7    5   15 ar
     8    6    9 ar
     9    6   13 ar
    10    7   10 ar
    11    7   13 ar
    12    8   16 ar
    13    9   18 ar
    14   10   18 ar
    15   11   14 ar
    16   11   21 1
    17   12   15 ar
    18   12   17 ar
    19   12   22 1
    20   13   27 1
    21   14   28 1
    22   15   29 1
    23   16   17 ar
    24   16   41 1
    25   17   40 1
    26   18   42 1
    27   19   20 2
    28   20   30 1
    29   21   33 am
    30   21   37 2
    31   22   35 1
    32   22   38 2
    33   23   31 1
    34   23   36 1
    35   23   39 2
    36   24   25 1
    37   24   40 1
    38   25   32 1
    39   25   41 1
    40   26   42 1
    41   27   33 1
    42   28   34 1
    43   29   34 1
    44   30   34 1
    45   31   32 1
    46    1   43 1
    47    2   44 1
    48    3   45 1
    49    4   46 1
    50    5   47 1
    51    6   48 1
    52    7   49 1
    53    8   50 1
    54    9   51 1
    55   10   52 1
    56   19   53 1
    57   19   54 1
    58   20   55 1
    59   24   56 1
    60   24   57 1
    61   25   58 1
    62   26   59 1
    63   26   60 1
    64   26   61 1
    65   27   62 1
    66   27   63 1
    67   28   64 1
    68   28   65 1
    69   29   66 1
    70   29   67 1
    71   30   68 1
    72   30   69 1
    73   31   70 1
    74   31   71 1
    75   32   72 1
    76   32   73 1
    77   33   74 1
    78   34   75 1
