@<TRIPOS>MOLECULE
AVX38779_5
   70    72     0     0     0
SMALL
NO_CHARGES

@<TRIPOS>ATOM
      1 C1          2.1922    2.5319   -4.4558 C.ar      1 MOL         0.0000
      2 C2          2.4639    1.7723   -3.3179 C.ar      1 MOL         0.0000
      3 C3          1.3524    2.0260   -5.4480 C.ar      1 MOL         0.0000
      4 C4          1.8960    0.5067   -3.1723 C.ar      1 MOL         0.0000
      5 C5         -3.2512   -1.9004   -1.0767 C.ar      1 MOL         0.0000
      6 C6         -4.5948   -1.8159   -0.7109 C.ar      1 MOL         0.0000
      7 C7          0.7845    0.7603   -5.3024 C.ar      1 MOL         0.0000
      8 C8         -3.4112    0.2432   -2.1837 C.ar      1 MOL         0.0000
      9 C9          1.0562    0.0006   -4.1645 C.ar      1 MOL         0.0000
     10 C10        -2.6589   -0.8698   -1.8075 C.ar      1 MOL         0.0000
     11 C11        -5.3438   -0.6966   -1.0748 C.ar      1 MOL         0.0000
     12 C12        -4.7582    0.3222   -1.8295 C.ar      1 MOL         0.0000
     13 C13        -0.6786   -4.8716   -3.8546 C.2       1 MOL         0.0000
     14 C14        -1.2017   -3.7925   -3.2623 C.2       1 MOL         0.0000
     15 C15        -0.0882    0.2558   -6.3539 C.2       1 MOL         0.0000
     16 C16        -2.7827    1.3279   -2.9653 C.2       1 MOL         0.0000
     17 C17        -8.6360    0.5551    1.9983 C.2       1 MOL         0.0000
     18 C18        -6.8648    1.2509   -2.1334 C.3       1 MOL         0.0000
     19 C19        -7.2151    0.6528   -0.7773 C.3       1 MOL         0.0000
     20 C20        -1.8745    2.8072   -8.8950 C.3       1 MOL         0.0000
     21 C21        -3.2512   -0.3020   -7.0112 C.3       1 MOL         0.0000
     22 C22         0.4594   -1.3638   -3.9824 C.3       1 MOL         0.0000
     23 C23        -1.2157   -0.9880   -2.1764 C.3       1 MOL         0.0000
     24 C24        -1.7059   -2.5979   -4.0028 C.3       1 MOL         0.0000
     25 C25        -9.0797   -0.1484    0.7102 C.3       1 MOL         0.0000
     26 C26        -8.7211    0.5280   -0.5991 C.3       1 MOL         0.0000
     27 C27        -2.8778    1.8534   -8.2594 C.3       1 MOL         0.0000
     28 C28        -2.2099    0.6218   -7.6344 C.3       1 MOL         0.0000
     29 N1         -1.2360    1.0033   -6.6370 N.am      1 MOL         0.0000
     30 N2         -1.0008   -1.3248   -3.6097 N.4       1 MOL         0.0000
     31 O1         -2.2297    2.3003   -2.3324 O.co2     1 MOL         0.0000
     32 O2         -8.3865   -0.1873    2.9873 O.co2     1 MOL         0.0000
     33 O3          0.1849   -0.8033   -6.9437 O.2       1 MOL         0.0000
     34 O4         -2.8133    1.2578   -4.2484 O.co2     1 MOL         0.0000
     35 O5         -8.5620    1.8141    1.9022 O.co2     1 MOL         0.0000
     36 O6         -5.4491    1.4300   -2.2445 O.3       1 MOL         0.0000
     37 O7         -6.6517   -0.6615   -0.6684 O.3       1 MOL         0.0000
     38 H1          2.6341    3.5177   -4.5696 H         1 MOL         0.0000
     39 H2          3.1181    2.1667   -2.5458 H         1 MOL         0.0000
     40 H3          1.1493    2.6273   -6.3305 H         1 MOL         0.0000
     41 H4          2.1138   -0.0768   -2.2816 H         1 MOL         0.0000
     42 H5         -2.6725   -2.7723   -0.7833 H         1 MOL         0.0000
     43 H6         -5.0453   -2.6183   -0.1331 H         1 MOL         0.0000
     44 H7         -0.3334   -5.7111   -3.2610 H         1 MOL         0.0000
     45 H8         -0.5865   -4.9385   -4.9329 H         1 MOL         0.0000
     46 H9         -1.2762   -3.7783   -2.1781 H         1 MOL         0.0000
     47 H10        -7.1990    0.6124   -2.9611 H         1 MOL         0.0000
     48 H11        -7.3297    2.2351   -2.2542 H         1 MOL         0.0000
     49 H12        -6.8037    1.2669    0.0353 H         1 MOL         0.0000
     50 H13        -1.2911    2.3116   -9.6769 H         1 MOL         0.0000
     51 H14        -2.3976    3.6529   -9.3528 H         1 MOL         0.0000
     52 H15        -1.1816    3.2033   -8.1458 H         1 MOL         0.0000
     53 H16        -3.8185    0.2159   -6.2312 H         1 MOL         0.0000
     54 H17        -3.9585   -0.6684   -7.7638 H         1 MOL         0.0000
     55 H18        -2.7724   -1.1765   -6.5568 H         1 MOL         0.0000
     56 H19         0.5337   -1.9544   -4.9018 H         1 MOL         0.0000
     57 H20         0.9721   -1.9169   -3.1881 H         1 MOL         0.0000
     58 H21        -0.6760   -0.0500   -1.9941 H         1 MOL         0.0000
     59 H22        -0.7156   -1.7732   -1.5950 H         1 MOL         0.0000
     60 H23        -2.7674   -2.4409   -3.7881 H         1 MOL         0.0000
     61 H24        -1.5800   -2.6948   -5.0858 H         1 MOL         0.0000
     62 H25       -10.1737   -0.2168    0.7616 H         1 MOL         0.0000
     63 H26        -8.6930   -1.1751    0.7226 H         1 MOL         0.0000
     64 H27        -9.1569    1.5228   -0.6742 H         1 MOL         0.0000
     65 H28        -9.0950   -0.0643   -1.4339 H         1 MOL         0.0000
     66 H29        -3.4318    2.4004   -7.4869 H         1 MOL         0.0000
     67 H30        -3.6058    1.5452   -9.0200 H         1 MOL         0.0000
     68 H31        -1.6649    0.0683   -8.4079 H         1 MOL         0.0000
     69 H32        -1.4428    1.8269   -6.0814 H         1 MOL         0.0000
     70 H33        -1.4233   -0.5712   -4.1762 H         1 MOL         0.0000
@<TRIPOS>BOND
     1    1    2 ar
     2    1    3 ar
     3    2    4 ar
     4    3    7 ar
     5    4    9 ar
     6    5    6 ar
     7    5   10 ar
     8    6   11 ar
     9    7    9 ar
    10    7   15 1
    11    8   10 ar
    12    8   12 ar
    13    8   16 1
    14    9   22 1
    15   10   23 1
    16   11   12 ar
    17   11   37 1
    18   12   36 1
    19   13   14 2
    20   14   24 1
    21   15   29 am
    22   15   33 2
    23   16   31 1
    24   16   34 2
    25   17   25 1
    26   17   32 1
    27   17   35 2
    28   18   19 1
    29   18   36 1
    30   19   26 1
    31   19   37 1
    32   20   27 1
    33   21   28 1
    34   22   30 1
    35   23   30 1
    36   24   30 1
    37   25   26 1
    38   27   28 1
    39   28   29 1
    40    1   38 1
    41    2   39 1
    42    3   40 1
    43    4   41 1
    44    5   42 1
    45    6   43 1
    46   13   44 1
    47   13   45 1
    48   14   46 1
    49   18   47 1
    50   18   48 1
    51   19   49 1
    52   20   50 1
    53   20   51 1
    54   20   52 1
    55   21   53 1
    56   21   54 1
    57   21   55 1
    58   22   56 1
    59   22   57 1
    60   23   58 1
    61   23   59 1
    62   24   60 1
    63   24   61 1
    64   25   62 1
    65   25   63 1
    66   26   64 1
    67   26   65 1
    68   27   66 1
    69   27   67 1
    70   28   68 1
    71   29   69 1
    72   30   70 1
