@<TRIPOS>MOLECULE
AVX38749_7
   64    67     0     0     0
SMALL
NO_CHARGES

@<TRIPOS>ATOM
      1 C1          0.8227    2.4972    0.7613 C.ar      1 MOL         0.0000
      2 C2         -0.4669    2.5713    0.2131 C.ar      1 MOL         0.0000
      3 C3          1.5390    1.2996    0.7338 C.ar      1 MOL         0.0000
      4 C4         -1.0594    1.4490   -0.3711 C.ar      1 MOL         0.0000
      5 C5         -2.4783   -3.8465   -1.4808 C.ar      1 MOL         0.0000
      6 C6         -2.8423   -4.8524   -2.3762 C.ar      1 MOL         0.0000
      7 C7         -3.0748   -2.1672   -3.1149 C.ar      1 MOL         0.0000
      8 C8          0.9389    0.1885    0.1645 C.ar      1 MOL         0.0000
      9 C9         -0.3497    0.2584   -0.3845 C.ar      1 MOL         0.0000
     10 C10        -2.5995   -2.5057   -1.8477 C.ar      1 MOL         0.0000
     11 C11        -3.3309   -4.5142   -3.6384 C.ar      1 MOL         0.0000
     12 C12        -3.4266   -3.1729   -4.0155 C.ar      1 MOL         0.0000
     13 C13        -3.1928   -0.7467   -3.5028 C.2       1 MOL         0.0000
     14 C14         0.1254   -3.7716    1.4992 C.2       1 MOL         0.0000
     15 C15        -6.5441   -7.4420   -5.3568 C.2       1 MOL         0.0000
     16 C16         1.5227   -1.1831   -0.0012 C.3       1 MOL         0.0000
     17 C17        -3.8683   -3.8588   -6.1896 C.3       1 MOL         0.0000
     18 C18        -0.7357   -1.0684   -0.9834 C.3       1 MOL         0.0000
     19 C19         0.2556   -2.0223   -0.2630 C.3       1 MOL         0.0000
     20 C20        -4.4956   -5.0983   -5.5655 C.3       1 MOL         0.0000
     21 C21        -2.2053   -1.4449   -0.8546 C.3       1 MOL         0.0000
     22 C22        -0.5744   -4.0678    2.8140 C.3       1 MOL         0.0000
     23 C23        -5.1252   -7.5065   -5.9343 C.3       1 MOL         0.0000
     24 C24        -4.5845   -6.2392   -6.5684 C.3       1 MOL         0.0000
     25 C25        -0.1648   -5.4153    3.4032 C.3       1 MOL         0.0000
     26 C26        -0.9141   -5.6968    4.6966 C.3       1 MOL         0.0000
     27 N1         -0.2619   -2.5453    0.9850 N.am      1 MOL         0.0000
     28 N2         -0.4518   -6.9905    5.2543 N.4       1 MOL         0.0000
     29 O1         -4.2969   -0.1340   -3.2628 O.co2     1 MOL         0.0000
     30 O2         -6.7858   -8.1941   -4.3733 O.co2     1 MOL         0.0000
     31 O3         -2.1870   -0.1779   -4.0657 O.co2     1 MOL         0.0000
     32 O4          0.9286   -4.5393    0.9763 O.2       1 MOL         0.0000
     33 O5         -7.3048   -6.6180   -5.9418 O.co2     1 MOL         0.0000
     34 O6         -3.8678   -2.7783   -5.2510 O.3       1 MOL         0.0000
     35 O7         -3.6916   -5.5454   -4.4653 O.3       1 MOL         0.0000
     36 H1          1.2689    3.3828    1.2056 H         1 MOL         0.0000
     37 H2         -1.0066    3.5142    0.2372 H         1 MOL         0.0000
     38 H3          2.5395    1.2462    1.1494 H         1 MOL         0.0000
     39 H4         -2.0502    1.5210   -0.8061 H         1 MOL         0.0000
     40 H5         -2.1053   -4.1180   -0.4967 H         1 MOL         0.0000
     41 H6         -2.7543   -5.8938   -2.0786 H         1 MOL         0.0000
     42 H7          2.1846   -1.1908   -0.8739 H         1 MOL         0.0000
     43 H8          2.0709   -1.5091    0.8880 H         1 MOL         0.0000
     44 H9         -2.8342   -4.0402   -6.5093 H         1 MOL         0.0000
     45 H10        -4.4421   -3.5329   -7.0637 H         1 MOL         0.0000
     46 H11        -0.4715   -1.0323   -2.0492 H         1 MOL         0.0000
     47 H12         0.4807   -2.8974   -0.8823 H         1 MOL         0.0000
     48 H13        -5.5003   -4.8734   -5.1824 H         1 MOL         0.0000
     49 H14        -2.8281   -0.5541   -0.9974 H         1 MOL         0.0000
     50 H15        -2.4080   -1.7972    0.1636 H         1 MOL         0.0000
     51 H16        -1.6566   -4.0504    2.6372 H         1 MOL         0.0000
     52 H17        -0.3344   -3.2625    3.5187 H         1 MOL         0.0000
     53 H18        -5.1461   -8.2840   -6.7083 H         1 MOL         0.0000
     54 H19        -4.4440   -7.8548   -5.1477 H         1 MOL         0.0000
     55 H20        -5.1988   -5.9106   -7.4050 H         1 MOL         0.0000
     56 H21        -3.5767   -6.4162   -6.9434 H         1 MOL         0.0000
     57 H22         0.9169   -5.4235    3.5887 H         1 MOL         0.0000
     58 H23        -0.3635   -6.2120    2.6748 H         1 MOL         0.0000
     59 H24        -0.7187   -4.9354    5.4575 H         1 MOL         0.0000
     60 H25        -1.9921   -5.7880    4.5348 H         1 MOL         0.0000
     61 H26        -0.9612   -1.9949    1.4707 H         1 MOL         0.0000
     62 H27        -0.9149   -7.1927    6.1470 H         1 MOL         0.0000
     63 H28         0.5607   -6.9781    5.4199 H         1 MOL         0.0000
     64 H29        -0.6568   -7.7627    4.6105 H         1 MOL         0.0000
@<TRIPOS>BOND
     1    1    2 ar
     2    1    3 ar
     3    2    4 ar
     4    3    8 ar
     5    4    9 ar
     6    5    6 ar
     7    5   10 ar
     8    6   11 ar
     9    7   10 ar
    10    7   12 ar
    11    7   13 1
    12    8    9 ar
    13    8   16 1
    14    9   18 1
    15   10   21 1
    16   11   12 ar
    17   11   35 1
    18   12   34 1
    19   13   29 1
    20   13   31 2
    21   14   22 1
    22   14   27 am
    23   14   32 2
    24   15   23 1
    25   15   30 1
    26   15   33 2
    27   16   19 1
    28   17   20 1
    29   17   34 1
    30   18   19 1
    31   18   21 1
    32   19   27 1
    33   20   24 1
    34   20   35 1
    35   22   25 1
    36   23   24 1
    37   25   26 1
    38   26   28 1
    39    1   36 1
    40    2   37 1
    41    3   38 1
    42    4   39 1
    43    5   40 1
    44    6   41 1
    45   16   42 1
    46   16   43 1
    47   17   44 1
    48   17   45 1
    49   18   46 1
    50   19   47 1
    51   20   48 1
    52   21   49 1
    53   21   50 1
    54   22   51 1
    55   22   52 1
    56   23   53 1
    57   23   54 1
    58   24   55 1
    59   24   56 1
    60   25   57 1
    61   25   58 1
    62   26   59 1
    63   26   60 1
    64   27   61 1
    65   28   62 1
    66   28   63 1
    67   28   64 1
