@<TRIPOS>MOLECULE
AVX38749_1
   64    67     0     0     0
SMALL
NO_CHARGES

@<TRIPOS>ATOM
      1 C1          1.8121    1.8090   -1.1916 C.ar      1 MOL         0.0000
      2 C2          1.2445    1.0062   -2.1923 C.ar      1 MOL         0.0000
      3 C3          1.4139    1.6723    0.1391 C.ar      1 MOL         0.0000
      4 C4          0.2716    0.0548   -1.8762 C.ar      1 MOL         0.0000
      5 C5         -3.5155   -2.9249    0.0660 C.ar      1 MOL         0.0000
      6 C6         -4.4907   -3.7074    0.6847 C.ar      1 MOL         0.0000
      7 C7         -1.7992   -4.4447    0.8346 C.ar      1 MOL         0.0000
      8 C8          0.4574    0.7177    0.4451 C.ar      1 MOL         0.0000
      9 C9         -0.1106   -0.0875   -0.5510 C.ar      1 MOL         0.0000
     10 C10        -2.1712   -3.2900    0.1456 C.ar      1 MOL         0.0000
     11 C11        -4.1180   -4.8546    1.3857 C.ar      1 MOL         0.0000
     12 C12        -2.7754   -5.2351    1.4419 C.ar      1 MOL         0.0000
     13 C13        -0.3758   -4.8329    0.9086 C.2       1 MOL         0.0000
     14 C14        -1.7644   -1.7987    3.6520 C.2       1 MOL         0.0000
     15 C15        -8.0774   -7.5521    4.4708 C.2       1 MOL         0.0000
     16 C16        -0.1388    0.4223    1.7852 C.3       1 MOL         0.0000
     17 C17        -3.4319   -7.2639    2.3599 C.3       1 MOL         0.0000
     18 C18        -1.1518   -1.0021    0.0354 C.3       1 MOL         0.0000
     19 C19        -0.7658   -0.9617    1.5347 C.3       1 MOL         0.0000
     20 C20        -4.6095   -6.5020    2.9535 C.3       1 MOL         0.0000
     21 C21        -1.1435   -2.4184   -0.5254 C.3       1 MOL         0.0000
     22 C22        -3.1095   -1.9457    4.3413 C.3       1 MOL         0.0000
     23 C23        -6.8857   -6.7068    4.0058 C.3       1 MOL         0.0000
     24 C24        -5.7438   -7.4431    3.3319 C.3       1 MOL         0.0000
     25 C25        -3.1557   -3.1473    5.2820 C.3       1 MOL         0.0000
     26 C26        -4.5280   -3.2872    5.9230 C.3       1 MOL         0.0000
     27 N1         -1.8889   -1.2126    2.3971 N.am      1 MOL         0.0000
     28 N2         -4.5118   -4.4363    6.8598 N.4       1 MOL         0.0000
     29 O1          0.1009   -5.5972   -0.0082 O.co2     1 MOL         0.0000
     30 O2         -9.0234   -6.9316    5.0290 O.co2     1 MOL         0.0000
     31 O3          0.3312   -4.3917    1.8871 O.co2     1 MOL         0.0000
     32 O4         -0.7058   -2.1615    4.1576 O.2       1 MOL         0.0000
     33 O5         -7.9662   -8.7868    4.2201 O.co2     1 MOL         0.0000
     34 O6         -2.3507   -6.3674    2.0856 O.3       1 MOL         0.0000
     35 O7         -5.1183   -5.5702    1.9892 O.3       1 MOL         0.0000
     36 H1          2.5634    2.5477   -1.4572 H         1 MOL         0.0000
     37 H2          1.5604    1.1315   -3.2244 H         1 MOL         0.0000
     38 H3          1.8458    2.3010    0.9103 H         1 MOL         0.0000
     39 H4         -0.1719   -0.5499   -2.6597 H         1 MOL         0.0000
     40 H5         -3.8133   -2.0288   -0.4722 H         1 MOL         0.0000
     41 H6         -5.5340   -3.4094    0.6271 H         1 MOL         0.0000
     42 H7          0.6167    0.3767    2.5755 H         1 MOL         0.0000
     43 H8         -0.8902    1.1782    2.0386 H         1 MOL         0.0000
     44 H9         -3.0622   -8.0165    3.0644 H         1 MOL         0.0000
     45 H10        -3.7030   -7.7754    1.4274 H         1 MOL         0.0000
     46 H11        -2.1407   -0.5507   -0.1204 H         1 MOL         0.0000
     47 H12        -0.0191   -1.7378    1.7550 H         1 MOL         0.0000
     48 H13        -4.2972   -5.9349    3.8411 H         1 MOL         0.0000
     49 H14        -0.1470   -2.8572   -0.4016 H         1 MOL         0.0000
     50 H15        -1.3308   -2.3878   -1.6049 H         1 MOL         0.0000
     51 H16        -3.8810   -2.0460    3.5684 H         1 MOL         0.0000
     52 H17        -3.3100   -1.0242    4.9010 H         1 MOL         0.0000
     53 H18        -6.4853   -6.2232    4.9058 H         1 MOL         0.0000
     54 H19        -7.2583   -5.9088    3.3514 H         1 MOL         0.0000
     55 H20        -6.0704   -7.9618    2.4323 H         1 MOL         0.0000
     56 H21        -5.3305   -8.1853    4.0143 H         1 MOL         0.0000
     57 H22        -2.3895   -3.0366    6.0599 H         1 MOL         0.0000
     58 H23        -2.9077   -4.0606    4.7260 H         1 MOL         0.0000
     59 H24        -4.7987   -2.4040    6.5089 H         1 MOL         0.0000
     60 H25        -5.3075   -3.4919    5.1832 H         1 MOL         0.0000
     61 H26        -2.8193   -0.9807    2.0533 H         1 MOL         0.0000
     62 H27        -4.2349   -4.1390    7.8018 H         1 MOL         0.0000
     63 H28        -3.8487   -5.1547    6.5483 H         1 MOL         0.0000
     64 H29        -5.4391   -4.8702    6.9258 H         1 MOL         0.0000
@<TRIPOS>BOND
     1    1    2 ar
     2    1    3 ar
     3    2    4 ar
     4    3    8 ar
     5    4    9 ar
     6    5    6 ar
     7    5   10 ar
     8    6   11 ar
     9    7   10 ar
    10    7   12 ar
    11    7   13 1
    12    8    9 ar
    13    8   16 1
    14    9   18 1
    15   10   21 1
    16   11   12 ar
    17   11   35 1
    18   12   34 1
    19   13   29 1
    20   13   31 2
    21   14   22 1
    22   14   27 am
    23   14   32 2
    24   15   23 1
    25   15   30 1
    26   15   33 2
    27   16   19 1
    28   17   20 1
    29   17   34 1
    30   18   19 1
    31   18   21 1
    32   19   27 1
    33   20   24 1
    34   20   35 1
    35   22   25 1
    36   23   24 1
    37   25   26 1
    38   26   28 1
    39    1   36 1
    40    2   37 1
    41    3   38 1
    42    4   39 1
    43    5   40 1
    44    6   41 1
    45   16   42 1
    46   16   43 1
    47   17   44 1
    48   17   45 1
    49   18   46 1
    50   19   47 1
    51   20   48 1
    52   21   49 1
    53   21   50 1
    54   22   51 1
    55   22   52 1
    56   23   53 1
    57   23   54 1
    58   24   55 1
    59   24   56 1
    60   25   57 1
    61   25   58 1
    62   26   59 1
    63   26   60 1
    64   27   61 1
    65   28   62 1
    66   28   63 1
    67   28   64 1
