@<TRIPOS>MOLECULE
AVX38779_6
   70    72     0     0     0
SMALL
NO_CHARGES

@<TRIPOS>ATOM
      1 C1         -2.8515   -6.0281   -3.2575 C.ar      1 MOL         0.0000
      2 C2         -3.1247   -5.0845   -4.2477 C.ar      1 MOL         0.0000
      3 C3         -1.7369   -5.8718   -2.4335 C.ar      1 MOL         0.0000
      4 C4         -2.2831   -3.9846   -4.4141 C.ar      1 MOL         0.0000
      5 C5         -3.6325   -0.4324   -2.3642 C.ar      1 MOL         0.0000
      6 C6         -4.7179    0.4210   -2.1649 C.ar      1 MOL         0.0000
      7 C7         -0.8953   -4.7719   -2.5999 C.ar      1 MOL         0.0000
      8 C8         -2.1580    1.1970   -1.3557 C.ar      1 MOL         0.0000
      9 C9         -1.1684   -3.8283   -3.5902 C.ar      1 MOL         0.0000
     10 C10        -2.3552   -0.0471   -1.9553 C.ar      1 MOL         0.0000
     11 C11        -4.5235    1.6594   -1.5526 C.ar      1 MOL         0.0000
     12 C12        -3.2409    2.0563   -1.1680 C.ar      1 MOL         0.0000
     13 C13         0.4028   -0.3818   -6.7536 C.2       1 MOL         0.0000
     14 C14        -0.5664   -0.2775   -5.8379 C.2       1 MOL         0.0000
     15 C15         0.2621   -4.6334   -1.7264 C.2       1 MOL         0.0000
     16 C16        -0.8027    1.6050   -0.9326 C.2       1 MOL         0.0000
     17 C17        -8.0883    3.1335    1.0872 C.2       1 MOL         0.0000
     18 C18        -4.0677    4.1878   -0.7610 C.3       1 MOL         0.0000
     19 C19        -5.3883    3.5048   -0.4310 C.3       1 MOL         0.0000
     20 C20         0.0129   -2.2055    1.4707 C.3       1 MOL         0.0000
     21 C21         1.5751   -5.7418    1.0641 C.3       1 MOL         0.0000
     22 C22        -0.2799   -2.6362   -3.7915 C.3       1 MOL         0.0000
     23 C23        -1.2157   -0.9880   -2.1764 C.3       1 MOL         0.0000
     24 C24        -0.3192   -0.2135   -4.3666 C.3       1 MOL         0.0000
     25 C25        -7.8840    3.7900   -0.2831 C.3       1 MOL         0.0000
     26 C26        -6.5539    4.4786   -0.5224 C.3       1 MOL         0.0000
     27 C27         0.5475   -3.5808    1.8493 C.3       1 MOL         0.0000
     28 C28         1.0510   -4.3746    0.6370 C.3       1 MOL         0.0000
     29 N1          0.0116   -4.5389   -0.3536 N.am      1 MOL         0.0000
     30 N2         -1.0008   -1.3248   -3.6097 N.4       1 MOL         0.0000
     31 O1         -0.4173    1.3140    0.2585 O.co2     1 MOL         0.0000
     32 O2         -8.8432    2.1233    1.1201 O.co2     1 MOL         0.0000
     33 O3          1.4082   -4.5829   -2.2041 O.2       1 MOL         0.0000
     34 O4         -0.0609    2.2356   -1.7717 O.co2     1 MOL         0.0000
     35 O5         -7.4521    3.6896    2.0284 O.co2     1 MOL         0.0000
     36 O6         -2.9810    3.2719   -0.5921 O.3       1 MOL         0.0000
     37 O7         -5.6309    2.4441   -1.3652 O.3       1 MOL         0.0000
     38 H1         -3.5067   -6.8848   -3.1273 H         1 MOL         0.0000
     39 H2         -3.9926   -5.2068   -4.8891 H         1 MOL         0.0000
     40 H3         -1.5343   -6.6147   -1.6662 H         1 MOL         0.0000
     41 H4         -2.5052   -3.2549   -5.1883 H         1 MOL         0.0000
     42 H5         -3.7933   -1.3985   -2.8354 H         1 MOL         0.0000
     43 H6         -5.7108    0.1088   -2.4772 H         1 MOL         0.0000
     44 H7          0.1592   -0.4192   -7.8098 H         1 MOL         0.0000
     45 H8          1.4483   -0.4305   -6.4703 H         1 MOL         0.0000
     46 H9         -1.5984   -0.2270   -6.1753 H         1 MOL         0.0000
     47 H10        -4.0473    4.5627   -1.7923 H         1 MOL         0.0000
     48 H11        -3.8906    5.0336   -0.0883 H         1 MOL         0.0000
     49 H12        -5.3583    3.0691    0.5770 H         1 MOL         0.0000
     50 H13        -0.8115   -2.2797    0.7550 H         1 MOL         0.0000
     51 H14        -0.3616   -1.6895    2.3605 H         1 MOL         0.0000
     52 H15         0.8004   -1.5875    1.0276 H         1 MOL         0.0000
     53 H16         0.7914   -6.3257    1.5573 H         1 MOL         0.0000
     54 H17         1.9392   -6.3143    0.2035 H         1 MOL         0.0000
     55 H18         2.4100   -5.6360    1.7656 H         1 MOL         0.0000
     56 H19         0.5530   -2.6385   -3.0802 H         1 MOL         0.0000
     57 H20         0.1439   -2.6249   -4.8015 H         1 MOL         0.0000
     58 H21        -0.2701   -0.5670   -1.8117 H         1 MOL         0.0000
     59 H22        -1.3743   -1.9405   -1.6545 H         1 MOL         0.0000
     60 H23        -0.7114    0.7230   -3.9583 H         1 MOL         0.0000
     61 H24         0.7448   -0.2832   -4.1192 H         1 MOL         0.0000
     62 H25        -8.6731    4.5463   -0.3795 H         1 MOL         0.0000
     63 H26        -8.0641    3.0373   -1.0609 H         1 MOL         0.0000
     64 H27        -6.3811    5.2848    0.1886 H         1 MOL         0.0000
     65 H28        -6.5362    4.9073   -1.5241 H         1 MOL         0.0000
     66 H29         1.3677   -3.4467    2.5650 H         1 MOL         0.0000
     67 H30        -0.2429   -4.1388    2.3666 H         1 MOL         0.0000
     68 H31         1.8624   -3.8224    0.1489 H         1 MOL         0.0000
     69 H32        -0.9477   -4.5224   -0.0231 H         1 MOL         0.0000
     70 H33        -1.9300   -1.4433   -4.0454 H         1 MOL         0.0000
@<TRIPOS>BOND
     1    1    2 ar
     2    1    3 ar
     3    2    4 ar
     4    3    7 ar
     5    4    9 ar
     6    5    6 ar
     7    5   10 ar
     8    6   11 ar
     9    7    9 ar
    10    7   15 1
    11    8   10 ar
    12    8   12 ar
    13    8   16 1
    14    9   22 1
    15   10   23 1
    16   11   12 ar
    17   11   37 1
    18   12   36 1
    19   13   14 2
    20   14   24 1
    21   15   29 am
    22   15   33 2
    23   16   31 1
    24   16   34 2
    25   17   25 1
    26   17   32 1
    27   17   35 2
    28   18   19 1
    29   18   36 1
    30   19   26 1
    31   19   37 1
    32   20   27 1
    33   21   28 1
    34   22   30 1
    35   23   30 1
    36   24   30 1
    37   25   26 1
    38   27   28 1
    39   28   29 1
    40    1   38 1
    41    2   39 1
    42    3   40 1
    43    4   41 1
    44    5   42 1
    45    6   43 1
    46   13   44 1
    47   13   45 1
    48   14   46 1
    49   18   47 1
    50   18   48 1
    51   19   49 1
    52   20   50 1
    53   20   51 1
    54   20   52 1
    55   21   53 1
    56   21   54 1
    57   21   55 1
    58   22   56 1
    59   22   57 1
    60   23   58 1
    61   23   59 1
    62   24   60 1
    63   24   61 1
    64   25   62 1
    65   25   63 1
    66   26   64 1
    67   26   65 1
    68   27   66 1
    69   27   67 1
    70   28   68 1
    71   29   69 1
    72   30   70 1
