@<TRIPOS>MOLECULE
AVX38708_1
   56    59     0     0     0
SMALL
NO_CHARGES

@<TRIPOS>ATOM
      1 C1          6.1588   -2.5570    2.0955 C.ar      1 MOL         0.0000
      2 C2         -0.2060    3.4966    1.7800 C.ar      1 MOL         0.0000
      3 C3          4.9414   -3.0978    1.6821 C.ar      1 MOL         0.0000
      4 C4          6.1840   -1.5614    3.0722 C.ar      1 MOL         0.0000
      5 C5         -0.5107    3.4438    0.4199 C.ar      1 MOL         0.0000
      6 C6          0.1823    2.3383    2.4533 C.ar      1 MOL         0.0000
      7 C7          3.7491   -2.6430    2.2453 C.ar      1 MOL         0.0000
      8 C8          4.9917   -1.1067    3.6355 C.ar      1 MOL         0.0000
      9 C9         -0.4272    2.2326   -0.2670 C.ar      1 MOL         0.0000
     10 C10         3.7794   -0.9957   -3.1742 C.ar      1 MOL         0.0000
     11 C11         5.1025   -1.3375   -3.4640 C.ar      1 MOL         0.0000
     12 C12         0.2657    1.1272    1.7665 C.ar      1 MOL         0.0000
     13 C13         4.4880    0.2555   -1.2093 C.ar      1 MOL         0.0000
     14 C14         3.7742   -1.6475    3.2220 C.ar      1 MOL         0.0000
     15 C15        -0.0390    1.0743    0.4063 C.ar      1 MOL         0.0000
     16 C16         3.4739   -0.2036   -2.0533 C.ar      1 MOL         0.0000
     17 C17         6.0850   -0.8714   -2.6149 C.ar      1 MOL         0.0000
     18 C18         5.7861   -0.0961   -1.5178 C.ar      1 MOL         0.0000
     19 C19         0.6730   -0.0673    2.4939 C.2       1 MOL         0.0000
     20 C20         4.1947    1.0865   -0.0306 C.2       1 MOL         0.0000
     21 C21         7.9293   -0.3834   -1.5939 C.3       1 MOL         0.0000
     22 C22         1.5592   -2.1269   -0.8594 C.3       1 MOL         0.0000
     23 C23         2.4912   -1.1574    3.8285 C.3       1 MOL         0.0000
     24 C24         0.0417   -0.2149   -0.3568 C.3       1 MOL         0.0000
     25 C25         2.0430    0.1356   -1.7849 C.3       1 MOL         0.0000
     26 N1          1.9364   -0.0434    3.0935 N.am      1 MOL         0.0000
     27 N2          1.4579   -0.6366   -0.6560 N.4       1 MOL         0.0000
     28 O1          4.1748    2.3673   -0.1646 O.co2     1 MOL         0.0000
     29 O2         -0.0763   -1.0571    2.5476 O.2       1 MOL         0.0000
     30 O3          3.9678    0.5058    1.0964 O.co2     1 MOL         0.0000
     31 O4          7.4208   -1.1005   -2.7373 O.3       1 MOL         0.0000
     32 O5          6.8972    0.2569   -0.8159 O.3       1 MOL         0.0000
     33 H1          7.0872   -2.9121    1.6578 H         1 MOL         0.0000
     34 H2         -0.2706    4.4397    2.3154 H         1 MOL         0.0000
     35 H3          4.9217   -3.8737    0.9223 H         1 MOL         0.0000
     36 H4          7.1317   -1.1410    3.3952 H         1 MOL         0.0000
     37 H5         -0.8132    4.3460   -0.1038 H         1 MOL         0.0000
     38 H6          0.4161    2.3925    3.5135 H         1 MOL         0.0000
     39 H7          2.8051   -3.0701    1.9168 H         1 MOL         0.0000
     40 H8          5.0209   -0.3307    4.3957 H         1 MOL         0.0000
     41 H9         -0.6664    2.2025   -1.3267 H         1 MOL         0.0000
     42 H10         2.9841   -1.3487   -3.8264 H         1 MOL         0.0000
     43 H11         5.3423   -1.9479   -4.3272 H         1 MOL         0.0000
     44 H12         8.4685   -1.0873   -0.9497 H         1 MOL         0.0000
     45 H13         8.6311    0.3825   -1.9437 H         1 MOL         0.0000
     46 H14         0.9828   -2.3822   -1.7505 H         1 MOL         0.0000
     47 H15         2.6141   -2.3755   -0.9895 H         1 MOL         0.0000
     48 H16         1.1476   -2.6137    0.0269 H         1 MOL         0.0000
     49 H17         1.7422   -1.9566    3.8457 H         1 MOL         0.0000
     50 H18         2.6443   -0.8329    4.8631 H         1 MOL         0.0000
     51 H19        -0.4193   -1.0358    0.2028 H         1 MOL         0.0000
     52 H20        -0.4735   -0.1371   -1.3203 H         1 MOL         0.0000
     53 H21         1.9228    1.1963   -1.5308 H         1 MOL         0.0000
     54 H22         1.4121   -0.0668   -2.6596 H         1 MOL         0.0000
     55 H23         2.5327    0.7675    2.9649 H         1 MOL         0.0000
     56 H24         2.0101   -0.4226    0.1907 H         1 MOL         0.0000
@<TRIPOS>BOND
     1    1    3 ar
     2    1    4 ar
     3    2    5 ar
     4    2    6 ar
     5    3    7 ar
     6    4    8 ar
     7    5    9 ar
     8    6   12 ar
     9    7   14 ar
    10    8   14 ar
    11    9   15 ar
    12   10   11 ar
    13   10   16 ar
    14   11   17 ar
    15   12   15 ar
    16   12   19 1
    17   13   16 ar
    18   13   18 ar
    19   13   20 1
    20   14   23 1
    21   15   24 1
    22   16   25 1
    23   17   18 ar
    24   17   31 1
    25   18   32 1
    26   19   26 am
    27   19   29 2
    28   20   28 1
    29   20   30 2
    30   21   31 1
    31   21   32 1
    32   22   27 1
    33   23   26 1
    34   24   27 1
    35   25   27 1
    36    1   33 1
    37    2   34 1
    38    3   35 1
    39    4   36 1
    40    5   37 1
    41    6   38 1
    42    7   39 1
    43    8   40 1
    44    9   41 1
    45   10   42 1
    46   11   43 1
    47   21   44 1
    48   21   45 1
    49   22   46 1
    50   22   47 1
    51   22   48 1
    52   23   49 1
    53   23   50 1
    54   24   51 1
    55   24   52 1
    56   25   53 1
    57   25   54 1
    58   26   55 1
    59   27   56 1
