AVX38780_1
  -OEChem-04011314593D

 75 78  0     1  0  0  0  0  0999 V2000
    7.2955   -2.8050    4.5084 C   0  0  0  0  0  0  0  0  0  0  0  0
    7.2224   -1.5474    3.9095 C   0  0  0  0  0  0  0  0  0  0  0  0
    6.1579   -3.6087    4.5839 C   0  0  0  0  0  0  0  0  0  0  0  0
    6.0117   -1.0934    3.3862 C   0  0  0  0  0  0  0  0  0  0  0  0
    0.0258   -1.3822    2.6701 C   0  0  0  0  0  0  0  0  0  0  0  0
    3.7555   -8.1830    4.7160 C   0  0  0  0  0  0  0  0  0  0  0  0
    1.9342   -6.9800    5.7517 C   0  0  0  0  0  0  0  0  0  0  0  0
   -1.0673   -1.9218    3.3485 C   0  0  0  0  0  0  0  0  0  0  0  0
    3.8043   -9.0494    5.8080 C   0  0  0  0  0  0  0  0  0  0  0  0
    1.9829   -7.8465    6.8437 C   0  0  0  0  0  0  0  0  0  0  0  0
    4.9472   -3.1547    4.0607 C   0  0  0  0  0  0  0  0  0  0  0  0
    0.3543   -3.4815    1.5163 C   0  0  0  0  0  0  0  0  0  0  0  0
    2.8205   -7.1483    4.6878 C   0  0  0  0  0  0  0  0  0  0  0  0
    4.8741   -1.8971    3.4618 C   0  0  0  0  0  0  0  0  0  0  0  0
    0.7389   -2.1626    1.7595 C   0  0  0  0  0  0  0  0  0  0  0  0
   -1.4438   -3.2449    3.1161 C   0  0  0  0  0  0  0  0  0  0  0  0
   -0.7471   -4.0174    2.1842 C   0  0  0  0  0  0  0  0  0  0  0  0
    2.9180   -8.8812    6.8719 C   0  0  0  0  0  0  0  0  0  0  0  0
    4.4994   -0.0115   -1.0708 C   0  0  0  0  0  0  0  0  0  0  0  0
    4.5840   -0.4702    0.1827 C   0  0  0  0  0  0  0  0  0  0  0  0
    3.7746   -4.0139    4.1536 C   0  0  0  0  0  0  0  0  0  0  0  0
    1.1062   -4.3016    0.5445 C   0  0  0  0  0  0  0  0  0  0  0  0
   -5.4384   -5.5535    6.4605 C   0  0  0  0  0  0  0  0  0  0  0  0
   -2.4039   -5.6354    2.3489 C   0  0  0  0  0  0  0  0  0  0  0  0
   -2.5926   -5.1556    3.7820 C   0  0  2  0  0  0  0  0  0  0  0  0
    2.0300   -9.4984    8.9900 C   0  0  0  0  0  0  0  0  0  0  0  0
    2.7674   -6.2160    3.5122 C   0  0  0  0  0  0  0  0  0  0  0  0
    3.5849   -1.3837    2.8914 C   0  0  0  0  0  0  0  0  0  0  0  0
    1.9102   -1.5568    1.0567 C   0  0  0  0  0  0  0  0  0  0  0  0
    4.3294   -1.8898    0.5695 C   0  0  0  0  0  0  0  0  0  0  0  0
   -4.1191   -5.1662    5.7820 C   0  0  0  0  0  0  0  0  0  0  0  0
   -3.9544   -5.5606    4.3269 C   0  0  0  0  0  0  0  0  0  0  0  0
    3.8535   -5.2626    3.5285 N   0  0  0  0  0  0  0  0  0  0  0  0
    3.2198   -2.0313    1.5800 N   0  3  1  0  0  0  0  0  0  0  0  0
    0.7345   -4.2910   -0.6858 O   0  5  0  0  0  0  0  0  0  0  0  0
   -5.5678   -5.2204    7.6703 O   0  5  0  0  0  0  0  0  0  0  0  0
    2.7553   -3.6248    4.7483 O   0  0  0  0  0  0  0  0  0  0  0  0
    2.1030   -4.9945    0.9666 O   0  0  0  0  0  0  0  0  0  0  0  0
   -6.2522   -6.1582    5.7041 O   0  0  0  0  0  0  0  0  0  0  0  0
   -1.0886   -5.3106    1.8880 O   0  0  0  0  0  0  0  0  0  0  0  0
   -2.5121   -3.7242    3.8275 O   0  0  0  0  0  0  0  0  0  0  0  0
    2.9649   -9.7275    7.9368 O   0  0  0  0  0  0  0  0  0  0  0  0
    8.2382   -3.1591    4.9159 H   0  0  0  0  0  0  0  0  0  0  0  0
    8.1085   -0.9219    3.8511 H   0  0  0  0  0  0  0  0  0  0  0  0
    6.2277   -4.5863    5.0541 H   0  0  0  0  0  0  0  0  0  0  0  0
    5.9657   -0.1122    2.9212 H   0  0  0  0  0  0  0  0  0  0  0  0
    0.3171   -0.3529    2.8620 H   0  0  0  0  0  0  0  0  0  0  0  0
    4.4498   -8.3214    3.8916 H   0  0  0  0  0  0  0  0  0  0  0  0
    1.2023   -6.1764    5.7383 H   0  0  0  0  0  0  0  0  0  0  0  0
   -1.6099   -1.3103    4.0642 H   0  0  0  0  0  0  0  0  0  0  0  0
    4.5348   -9.8538    5.8240 H   0  0  0  0  0  0  0  0  0  0  0  0
    1.2897   -7.7104    7.6690 H   0  0  0  0  0  0  0  0  0  0  0  0
    4.7011    1.0315   -1.2891 H   0  0  0  0  0  0  0  0  0  0  0  0
    4.2309   -0.6616   -1.8960 H   0  0  0  0  0  0  0  0  0  0  0  0
    4.8623    0.2223    0.9729 H   0  0  0  0  0  0  0  0  0  0  0  0
   -2.5132   -6.7233    2.2867 H   0  0  0  0  0  0  0  0  0  0  0  0
   -3.1327   -5.1809    1.6655 H   0  0  0  0  0  0  0  0  0  0  0  0
   -1.8062   -5.5602    4.4337 H   0  0  0  0  0  0  0  0  0  0  0  0
    2.1755  -10.2435    9.7759 H   0  0  0  0  0  0  0  0  0  0  0  0
    1.0127   -9.5630    8.5957 H   0  0  0  0  0  0  0  0  0  0  0  0
    2.1962   -8.5003    9.4020 H   0  0  0  0  0  0  0  0  0  0  0  0
    2.8244   -6.7760    2.5724 H   0  0  0  0  0  0  0  0  0  0  0  0
    1.8281   -5.6532    3.4990 H   0  0  0  0  0  0  0  0  0  0  0  0
    2.7491   -1.5655    3.5755 H   0  0  0  0  0  0  0  0  0  0  0  0
    3.6360   -0.3053    2.7063 H   0  0  0  0  0  0  0  0  0  0  0  0
    1.9013   -1.7917   -0.0153 H   0  0  0  0  0  0  0  0  0  0  0  0
    1.9152   -0.4636    1.1537 H   0  0  0  0  0  0  0  0  0  0  0  0
    5.2229   -2.3216    1.0307 H   0  0  0  0  0  0  0  0  0  0  0  0
    4.0443   -2.5103   -0.2860 H   0  0  0  0  0  0  0  0  0  0  0  0
   -3.3251   -5.6629    6.3538 H   0  0  0  0  0  0  0  0  0  0  0  0
   -3.9708   -4.0854    5.8990 H   0  0  0  0  0  0  0  0  0  0  0  0
   -4.7205   -5.1129    3.6961 H   0  0  0  0  0  0  0  0  0  0  0  0
   -4.0304   -6.6430    4.2277 H   0  0  0  0  0  0  0  0  0  0  0  0
    4.6874   -5.5039    3.0029 H   0  0  0  0  0  0  0  0  0  0  0  0
    3.1315   -3.0426    1.7721 H   0  0  0  0  0  0  0  0  0  0  0  0
  1  2  1  0  0  0  0
  1  3  2  0  0  0  0
  2  4  2  0  0  0  0
  3 11  1  0  0  0  0
  4 14  1  0  0  0  0
  5  8  2  0  0  0  0
  5 15  1  0  0  0  0
  6  9  2  0  0  0  0
  6 13  1  0  0  0  0
  7 10  1  0  0  0  0
  7 13  2  0  0  0  0
  8 16  1  0  0  0  0
  9 18  1  0  0  0  0
 10 18  2  0  0  0  0
 11 14  2  0  0  0  0
 11 21  1  0  0  0  0
 12 15  2  0  0  0  0
 12 17  1  0  0  0  0
 12 22  1  0  0  0  0
 13 27  1  0  0  0  0
 14 28  1  0  0  0  0
 15 29  1  0  0  0  0
 16 17  2  0  0  0  0
 16 41  1  0  0  0  0
 17 40  1  0  0  0  0
 18 42  1  0  0  0  0
 19 20  2  0  0  0  0
 20 30  1  0  0  0  0
 21 33  1  0  0  0  0
 21 37  2  0  0  0  0
 22 35  1  0  0  0  0
 22 38  2  0  0  0  0
 23 31  1  0  0  0  0
 23 36  1  0  0  0  0
 23 39  2  0  0  0  0
 24 25  1  0  0  0  0
 24 40  1  0  0  0  0
 25 32  1  0  0  0  0
 25 41  1  0  0  0  0
 26 42  1  0  0  0  0
 27 33  1  0  0  0  0
 28 34  1  0  0  0  0
 29 34  1  0  0  0  0
 30 34  1  0  0  0  0
 31 32  1  0  0  0  0
  1 43  1  0  0  0  0
  2 44  1  0  0  0  0
  3 45  1  0  0  0  0
  4 46  1  0  0  0  0
  5 47  1  0  0  0  0
  6 48  1  0  0  0  0
  7 49  1  0  0  0  0
  8 50  1  0  0  0  0
  9 51  1  0  0  0  0
 10 52  1  0  0  0  0
 19 53  1  0  0  0  0
 19 54  1  0  0  0  0
 20 55  1  0  0  0  0
 24 56  1  0  0  0  0
 24 57  1  0  0  0  0
 25 58  1  0  0  0  0
 26 59  1  0  0  0  0
 26 60  1  0  0  0  0
 26 61  1  0  0  0  0
 27 62  1  0  0  0  0
 27 63  1  0  0  0  0
 28 64  1  0  0  0  0
 28 65  1  0  0  0  0
 29 66  1  0  0  0  0
 29 67  1  0  0  0  0
 30 68  1  0  0  0  0
 30 69  1  0  0  0  0
 31 70  1  0  0  0  0
 31 71  1  0  0  0  0
 32 72  1  0  0  0  0
 32 73  1  0  0  0  0
 33 74  1  0  0  0  0
 34 75  1  0  0  0  0
M  CHG  3  34   1  35  -1  36  -1
M  END
$$$$
