@<TRIPOS>MOLECULE
AVX38785_2
   67    70     0     0     0
SMALL
NO_CHARGES

@<TRIPOS>ATOM
      1 C1          7.4374   -1.8015   -2.5602 C.ar      1 MOL         0.0000
      2 C2          0.8041   -1.4712   -8.3538 C.ar      1 MOL         0.0000
      3 C3          7.2836   -2.7505   -3.5708 C.ar      1 MOL         0.0000
      4 C4          6.3246   -1.3547   -1.8477 C.ar      1 MOL         0.0000
      5 C5          0.0708   -0.3296   -8.0304 C.ar      1 MOL         0.0000
      6 C6          1.2986   -2.2927   -7.3407 C.ar      1 MOL         0.0000
      7 C7          6.0169   -3.2526   -3.8690 C.ar      1 MOL         0.0000
      8 C8          5.0579   -1.8568   -2.1459 C.ar      1 MOL         0.0000
      9 C9         -0.1679   -0.0093   -6.6939 C.ar      1 MOL         0.0000
     10 C10         0.8019   -0.6244   -0.7686 C.ar      1 MOL         0.0000
     11 C11         1.8108   -1.0844    0.0779 C.ar      1 MOL         0.0000
     12 C12         1.0600   -1.9724   -6.0042 C.ar      1 MOL         0.0000
     13 C13        -0.0766   -2.8695   -0.9522 C.ar      1 MOL         0.0000
     14 C14         4.9040   -2.8058   -3.1566 C.ar      1 MOL         0.0000
     15 C15         0.3267   -0.8308   -5.6808 C.ar      1 MOL         0.0000
     16 C16        -0.1436   -1.5148   -1.2787 C.ar      1 MOL         0.0000
     17 C17         1.8698   -2.4366    0.4160 C.ar      1 MOL         0.0000
     18 C18         0.9398   -3.3323   -0.1161 C.ar      1 MOL         0.0000
     19 C19         1.5885   -2.8471   -4.9662 C.2       1 MOL         0.0000
     20 C20        -1.0741   -3.8105   -1.5017 C.2       1 MOL         0.0000
     21 C21         3.4548   -3.3234    4.7231 C.2       1 MOL         0.0000
     22 C22         2.2139   -5.0857    0.7172 C.3       1 MOL         0.0000
     23 C23         2.6327   -4.1252    1.8223 C.3       1 MOL         0.0000
     24 C24        -2.2816   -1.3075   -4.4044 C.3       1 MOL         0.0000
     25 C25         3.5402   -3.3457   -3.4772 C.3       1 MOL         0.0000
     26 C26         0.0557   -0.4623   -4.2519 C.3       1 MOL         0.0000
     27 C27        -1.2157   -0.9880   -2.1764 C.3       1 MOL         0.0000
     28 C28         4.3923   -3.5886    3.5391 C.3       1 MOL         0.0000
     29 C29         3.9172   -4.5833    2.4974 C.3       1 MOL         0.0000
     30 N1          2.8706   -2.5585   -4.4874 N.am      1 MOL         0.0000
     31 N2         -1.0008   -1.3248   -3.6097 N.4       1 MOL         0.0000
     32 O1         -2.1535   -4.0194   -0.8361 O.co2     1 MOL         0.0000
     33 O2          3.5109   -2.1733    5.2384 O.co2     1 MOL         0.0000
     34 O3          0.9207   -3.8114   -4.5561 O.2       1 MOL         0.0000
     35 O4         -0.8242   -4.3844   -2.6243 O.co2     1 MOL         0.0000
     36 O5          2.7197   -4.3053    5.0321 O.co2     1 MOL         0.0000
     37 O6          0.9646   -4.6756    0.1520 O.3       1 MOL         0.0000
     38 O7          2.8704   -2.8242    1.2679 O.3       1 MOL         0.0000
     39 H1          8.4240   -1.4116   -2.3273 H         1 MOL         0.0000
     40 H2          0.9901   -1.7211   -9.3944 H         1 MOL         0.0000
     41 H3          8.1501   -3.0993   -4.1249 H         1 MOL         0.0000
     42 H4          6.4441   -0.6166   -1.0601 H         1 MOL         0.0000
     43 H5         -0.3138    0.3098   -8.8197 H         1 MOL         0.0000
     44 H6          1.8696   -3.1789   -7.6057 H         1 MOL         0.0000
     45 H7          5.9065   -3.9917   -4.6582 H         1 MOL         0.0000
     46 H8          4.1965   -1.5028   -1.5857 H         1 MOL         0.0000
     47 H9         -0.7408    0.8822   -6.4528 H         1 MOL         0.0000
     48 H10         0.7584    0.4318   -1.0216 H         1 MOL         0.0000
     49 H11         2.5369   -0.3824    0.4787 H         1 MOL         0.0000
     50 H12         2.9587   -5.1337   -0.0874 H         1 MOL         0.0000
     51 H13         2.0772   -6.0971    1.1145 H         1 MOL         0.0000
     52 H14         1.8397   -4.0329    2.5770 H         1 MOL         0.0000
     53 H15        -2.6787   -0.2912   -4.3757 H         1 MOL         0.0000
     54 H16        -2.0446   -1.6077   -5.4268 H         1 MOL         0.0000
     55 H17        -2.9732   -2.0122   -3.9387 H         1 MOL         0.0000
     56 H18         3.6091   -4.3760   -3.8431 H         1 MOL         0.0000
     57 H19         2.9034   -3.3589   -2.5864 H         1 MOL         0.0000
     58 H20         0.9582   -0.5618   -3.6393 H         1 MOL         0.0000
     59 H21        -0.2910    0.5735   -4.1695 H         1 MOL         0.0000
     60 H22        -2.2000   -1.3922   -1.9073 H         1 MOL         0.0000
     61 H23        -1.2836    0.1060   -2.1218 H         1 MOL         0.0000
     62 H24         5.3245   -3.9759    3.9693 H         1 MOL         0.0000
     63 H25         4.6326   -2.6297    3.0630 H         1 MOL         0.0000
     64 H26         3.7439   -5.5686    2.9269 H         1 MOL         0.0000
     65 H27         4.6705   -4.6871    1.7169 H         1 MOL         0.0000
     66 H28         3.3967   -1.7964   -4.9025 H         1 MOL         0.0000
     67 H29        -0.6472   -2.2946   -3.6529 H         1 MOL         0.0000
@<TRIPOS>BOND
     1    1    3 ar
     2    1    4 ar
     3    2    5 ar
     4    2    6 ar
     5    3    7 ar
     6    4    8 ar
     7    5    9 ar
     8    6   12 ar
     9    7   14 ar
    10    8   14 ar
    11    9   15 ar
    12   10   11 ar
    13   10   16 ar
    14   11   17 ar
    15   12   15 ar
    16   12   19 1
    17   13   16 ar
    18   13   18 ar
    19   13   20 1
    20   14   25 1
    21   15   26 1
    22   16   27 1
    23   17   18 ar
    24   17   38 1
    25   18   37 1
    26   19   30 am
    27   19   34 2
    28   20   32 1
    29   20   35 2
    30   21   28 1
    31   21   33 1
    32   21   36 2
    33   22   23 1
    34   22   37 1
    35   23   29 1
    36   23   38 1
    37   24   31 1
    38   25   30 1
    39   26   31 1
    40   27   31 1
    41   28   29 1
    42    1   39 1
    43    2   40 1
    44    3   41 1
    45    4   42 1
    46    5   43 1
    47    6   44 1
    48    7   45 1
    49    8   46 1
    50    9   47 1
    51   10   48 1
    52   11   49 1
    53   22   50 1
    54   22   51 1
    55   23   52 1
    56   24   53 1
    57   24   54 1
    58   24   55 1
    59   25   56 1
    60   25   57 1
    61   26   58 1
    62   26   59 1
    63   27   60 1
    64   27   61 1
    65   28   62 1
    66   28   63 1
    67   29   64 1
    68   29   65 1
    69   30   66 1
    70   31   67 1
