@<TRIPOS>MOLECULE
AVX38711_3
   37    39     0     0     0
SMALL
NO_CHARGES

@<TRIPOS>ATOM
      1 C1          4.6208   -5.3193   -6.4249 C.ar      1 MOL         0.0000
      2 C2          5.6525   -4.6823   -5.7355 C.ar      1 MOL         0.0000
      3 C3          3.2964   -5.1272   -6.0316 C.ar      1 MOL         0.0000
      4 C4          1.4462   -1.4535    0.6772 C.ar      1 MOL         0.0000
      5 C5          0.7682   -0.7071   -0.3012 C.ar      1 MOL         0.0000
      6 C6          5.3599   -3.8534   -4.6525 C.ar      1 MOL         0.0000
      7 C7          3.0037   -4.2982   -4.9486 C.ar      1 MOL         0.0000
      8 C8          2.4323   -2.3748    0.3146 C.ar      1 MOL         0.0000
      9 C9          1.0709   -0.8678   -1.6544 C.ar      1 MOL         0.0000
     10 C10         4.0355   -3.6613   -4.2591 C.ar      1 MOL         0.0000
     11 C11         2.7268   -2.5229   -1.0294 C.ar      1 MOL         0.0000
     12 C12         2.0592   -1.7728   -1.9884 C.ar      1 MOL         0.0000
     13 C13         0.3605   -0.0887   -2.6783 C.2       1 MOL         0.0000
     14 C14         2.9517   -7.0375   -0.2443 C.2       1 MOL         0.0000
     15 C15         3.6744   -3.4582   -1.6989 C.3       1 MOL         0.0000
     16 C16         3.7177   -2.7633   -3.0856 C.3       1 MOL         0.0000
     17 C17         3.4270   -5.5860   -0.3788 C.3       1 MOL         0.0000
     18 C18         3.1211   -4.8818   -1.6844 C.3       1 MOL         0.0000
     19 O1         -0.5530    0.7408   -2.3059 O.co2     1 MOL         0.0000
     20 O2          3.2134   -7.6164    0.8456 O.co2     1 MOL         0.0000
     21 O3          0.6727   -0.2590   -3.9172 O.co2     1 MOL         0.0000
     22 O4          2.3339   -7.4765   -1.2569 O.co2     1 MOL         0.0000
     23 O5          2.4662   -2.0427   -3.2711 O.3       1 MOL         0.0000
     24 H1          4.8488   -5.9637   -7.2690 H         1 MOL         0.0000
     25 H2          6.6837   -4.8309   -6.0423 H         1 MOL         0.0000
     26 H3          2.4928   -5.6221   -6.5689 H         1 MOL         0.0000
     27 H4          1.1947   -1.3181    1.7257 H         1 MOL         0.0000
     28 H5          0.0014   -0.0019    0.0105 H         1 MOL         0.0000
     29 H6          6.1702   -3.3613   -4.1211 H         1 MOL         0.0000
     30 H7          1.9689   -4.1546   -4.6492 H         1 MOL         0.0000
     31 H8          2.9438   -2.9619    1.0695 H         1 MOL         0.0000
     32 H9          4.6661   -3.4368   -1.2338 H         1 MOL         0.0000
     33 H10         4.5206   -1.9840   -3.0629 H         1 MOL         0.0000
     34 H11         4.5181   -5.6108   -0.2652 H         1 MOL         0.0000
     35 H12         3.0294   -5.0091    0.4656 H         1 MOL         0.0000
     36 H13         2.0534   -4.8284   -1.8803 H         1 MOL         0.0000
     37 H14         3.5905   -5.4108   -2.5113 H         1 MOL         0.0000
@<TRIPOS>BOND
     1    1    2 ar
     2    1    3 ar
     3    2    6 ar
     4    3    7 ar
     5    4    5 ar
     6    4    8 ar
     7    5    9 ar
     8    6   10 ar
     9    7   10 ar
    10    8   11 ar
    11    9   12 ar
    12    9   13 1
    13   10   16 1
    14   11   12 ar
    15   11   15 1
    16   12   23 1
    17   13   19 1
    18   13   21 2
    19   14   17 1
    20   14   20 1
    21   14   22 2
    22   15   16 1
    23   15   18 1
    24   16   23 1
    25   17   18 1
    26    1   24 1
    27    2   25 1
    28    3   26 1
    29    4   27 1
    30    5   28 1
    31    6   29 1
    32    7   30 1
    33    8   31 1
    34   15   32 1
    35   16   33 1
    36   17   34 1
    37   17   35 1
    38   18   36 1
    39   18   37 1
