@<TRIPOS>MOLECULE
AVX38785_0
   67    70     0     0     0
SMALL
NO_CHARGES

@<TRIPOS>ATOM
      1 C1          2.4377    2.6319    8.6635 C.ar      1 MOL         0.0000
      2 C2          7.8446   -2.2153    3.6688 C.ar      1 MOL         0.0000
      3 C3          3.1687    1.5619    9.1795 C.ar      1 MOL         0.0000
      4 C4          1.8152    2.5164    7.4205 C.ar      1 MOL         0.0000
      5 C5          7.7894   -1.6561    2.3922 C.ar      1 MOL         0.0000
      6 C6          6.6785   -2.3491    4.4227 C.ar      1 MOL         0.0000
      7 C7          3.2773    0.3764    8.4525 C.ar      1 MOL         0.0000
      8 C8          1.9237    1.3309    6.6936 C.ar      1 MOL         0.0000
      9 C9          6.5682   -1.2306    1.8694 C.ar      1 MOL         0.0000
     10 C10         0.7254    0.2021    2.3555 C.ar      1 MOL         0.0000
     11 C11        -0.1548    0.6082    3.3587 C.ar      1 MOL         0.0000
     12 C12         5.4574   -1.9235    3.8998 C.ar      1 MOL         0.0000
     13 C13         0.2950   -2.1126    2.9057 C.ar      1 MOL         0.0000
     14 C14         2.6548    0.2609    7.2096 C.ar      1 MOL         0.0000
     15 C15         5.4022   -1.3643    2.6232 C.ar      1 MOL         0.0000
     16 C16         0.9542   -1.1562    2.1330 C.ar      1 MOL         0.0000
     17 C17        -0.8037   -0.3475    4.1410 C.ar      1 MOL         0.0000
     18 C18        -0.5959   -1.7074    3.8999 C.ar      1 MOL         0.0000
     19 C19         4.2553   -2.0742    4.7086 C.2       1 MOL         0.0000
     20 C20         0.5328   -3.5499    2.6608 C.2       1 MOL         0.0000
     21 C21        -3.7903    1.4221    8.6598 C.2       1 MOL         0.0000
     22 C22        -2.3510   -2.1886    5.3414 C.3       1 MOL         0.0000
     23 C23        -1.9702   -0.9089    6.0743 C.3       1 MOL         0.0000
     24 C24         3.9388   -2.9292    0.6058 C.3       1 MOL         0.0000
     25 C25         2.7715   -1.0148    6.4265 C.3       1 MOL         0.0000
     26 C26         4.1025   -0.8977    2.0366 C.3       1 MOL         0.0000
     27 C27         1.9102   -1.5568    1.0567 C.3       1 MOL         0.0000
     28 C28        -2.7256    0.8288    7.7296 C.3       1 MOL         0.0000
     29 C29        -3.1217   -0.3948    6.9259 C.3       1 MOL         0.0000
     30 N1          3.9188   -1.0069    5.5476 N.am      1 MOL         0.0000
     31 N2          3.2198   -2.0313    1.5800 N.4       1 MOL         0.0000
     32 O1         -0.2186   -4.1617    1.8164 O.co2     1 MOL         0.0000
     33 O2         -3.4530    2.4406    9.3234 O.co2     1 MOL         0.0000
     34 O3          3.5875   -3.1207    4.6539 O.2       1 MOL         0.0000
     35 O4          1.4818   -4.1335    3.3017 O.co2     1 MOL         0.0000
     36 O5         -4.8982    0.8123    8.6349 O.co2     1 MOL         0.0000
     37 O6         -1.2284   -2.6928    4.6111 O.3       1 MOL         0.0000
     38 O7         -1.6399    0.1130    5.1236 O.3       1 MOL         0.0000
     39 H1          2.3521    3.5544    9.2302 H         1 MOL         0.0000
     40 H2          8.7953   -2.5471    4.0764 H         1 MOL         0.0000
     41 H3          3.6526    1.6512   10.1477 H         1 MOL         0.0000
     42 H4          1.2450    3.3489    7.0190 H         1 MOL         0.0000
     43 H5          8.6977   -1.5520    1.8058 H         1 MOL         0.0000
     44 H6          6.7349   -2.7855    5.4167 H         1 MOL         0.0000
     45 H7          3.8491   -0.4521    8.8623 H         1 MOL         0.0000
     46 H8          1.4355    1.2500    5.7260 H         1 MOL         0.0000
     47 H9          6.5362   -0.7967    0.8734 H         1 MOL         0.0000
     48 H10         1.2325    0.9530    1.7552 H         1 MOL         0.0000
     49 H11        -0.3184    1.6682    3.5324 H         1 MOL         0.0000
     50 H12        -2.6558   -2.9654    6.0505 H         1 MOL         0.0000
     51 H13        -3.1779   -2.0271    4.6379 H         1 MOL         0.0000
     52 H14        -1.0920   -1.0742    6.7133 H         1 MOL         0.0000
     53 H15         4.1510   -2.3457   -0.2920 H         1 MOL         0.0000
     54 H16         4.8614   -3.2674    1.0814 H         1 MOL         0.0000
     55 H17         3.2819   -3.7714    0.3802 H         1 MOL         0.0000
     56 H18         2.8682   -1.8736    7.0996 H         1 MOL         0.0000
     57 H19         1.8804   -1.1817    5.8122 H         1 MOL         0.0000
     58 H20         3.5229   -0.3219    2.7661 H         1 MOL         0.0000
     59 H21         4.2697   -0.2579    1.1634 H         1 MOL         0.0000
     60 H22         1.5069   -2.3734    0.4444 H         1 MOL         0.0000
     61 H23         2.1307   -0.7189    0.3831 H         1 MOL         0.0000
     62 H24        -1.8822    0.5467    8.3724 H         1 MOL         0.0000
     63 H25        -2.3675    1.6205    7.0595 H         1 MOL         0.0000
     64 H26        -3.9668   -0.1933    6.2701 H         1 MOL         0.0000
     65 H27        -3.4069   -1.2019    7.6002 H         1 MOL         0.0000
     66 H28         4.5344   -0.2019    5.5995 H         1 MOL         0.0000
     67 H29         3.0316   -2.6060    2.4177 H         1 MOL         0.0000
@<TRIPOS>BOND
     1    1    3 ar
     2    1    4 ar
     3    2    5 ar
     4    2    6 ar
     5    3    7 ar
     6    4    8 ar
     7    5    9 ar
     8    6   12 ar
     9    7   14 ar
    10    8   14 ar
    11    9   15 ar
    12   10   11 ar
    13   10   16 ar
    14   11   17 ar
    15   12   15 ar
    16   12   19 1
    17   13   16 ar
    18   13   18 ar
    19   13   20 1
    20   14   25 1
    21   15   26 1
    22   16   27 1
    23   17   18 ar
    24   17   38 1
    25   18   37 1
    26   19   30 am
    27   19   34 2
    28   20   32 1
    29   20   35 2
    30   21   28 1
    31   21   33 1
    32   21   36 2
    33   22   23 1
    34   22   37 1
    35   23   29 1
    36   23   38 1
    37   24   31 1
    38   25   30 1
    39   26   31 1
    40   27   31 1
    41   28   29 1
    42    1   39 1
    43    2   40 1
    44    3   41 1
    45    4   42 1
    46    5   43 1
    47    6   44 1
    48    7   45 1
    49    8   46 1
    50    9   47 1
    51   10   48 1
    52   11   49 1
    53   22   50 1
    54   22   51 1
    55   23   52 1
    56   24   53 1
    57   24   54 1
    58   24   55 1
    59   25   56 1
    60   25   57 1
    61   26   58 1
    62   26   59 1
    63   27   60 1
    64   27   61 1
    65   28   62 1
    66   28   63 1
    67   29   64 1
    68   29   65 1
    69   30   66 1
    70   31   67 1
