AVX38741_2
  -OEChem-04011314563D

 65 69  0     1  0  0  0  0  0999 V2000
   -2.1057   -1.8265   -5.4310 C   0  0  0  0  0  0  0  0  0  0  0  0
    2.0711   -0.3869    2.3041 C   0  0  0  0  0  0  0  0  0  0  0  0
    0.9615   -1.0456    2.8299 C   0  0  0  0  0  0  0  0  0  0  0  0
   -0.7233   -1.8175   -5.2450 C   0  0  0  0  0  0  0  0  0  0  0  0
   -2.8914   -0.8195   -4.8702 C   0  0  0  0  0  0  0  0  0  0  0  0
    2.0584    0.0589    0.9834 C   0  0  0  0  0  0  0  0  0  0  0  0
   -0.1641   -1.2672    2.0349 C   0  0  0  0  0  0  0  0  0  0  0  0
   -0.1267   -0.8018   -4.4981 C   0  0  0  0  0  0  0  0  0  0  0  0
   -2.2948    0.1962   -4.1234 C   0  0  0  0  0  0  0  0  0  0  0  0
   -4.8282    1.5580   -1.1614 C   0  0  0  0  0  0  0  0  0  0  0  0
   -5.6320    2.6147   -1.5899 C   0  0  0  0  0  0  0  0  0  0  0  0
    0.9252   -0.1492    0.1881 C   0  0  0  0  0  0  0  0  0  0  0  0
   -4.1570    2.8444    0.7728 C   0  0  0  0  0  0  0  0  0  0  0  0
   -0.1944   -0.8293    0.7041 C   0  0  0  0  0  0  0  0  0  0  0  0
   -0.9124    0.2052   -3.9373 C   0  0  0  0  0  0  0  0  0  0  0  0
   -4.0960    1.6708    0.0211 C   0  0  0  0  0  0  0  0  0  0  0  0
   -5.7043    3.7832   -0.8312 C   0  0  0  0  0  0  0  0  0  0  0  0
   -4.9505    3.9064    0.3380 C   0  0  0  0  0  0  0  0  0  0  0  0
    0.9623    0.3300   -1.2176 C   0  0  0  0  0  0  0  0  0  0  0  0
   -3.3730    2.9632    2.0192 C   0  0  0  0  0  0  0  0  0  0  0  0
   -9.8496    5.9412   -0.9273 C   0  0  0  0  0  0  0  0  0  0  0  0
   -1.4078   -1.0930   -0.1449 C   0  0  0  0  0  0  0  0  0  0  0  0
   -5.5072    6.1596    0.4101 C   0  0  0  0  0  0  0  0  0  0  0  0
   -1.3156    1.3373   -0.8810 C   0  0  0  0  0  0  0  0  0  0  0  0
   -6.8021    5.7600   -0.2849 C   0  0  1  0  0  0  0  0  0  0  0  0
   -0.2708    1.2987   -3.1331 C   0  0  0  0  0  0  0  0  0  0  0  0
   -3.2476    0.5128    0.4574 C   0  0  0  0  0  0  0  0  0  0  0  0
   -8.6989    6.5501   -1.7373 C   0  0  0  0  0  0  0  0  0  0  0  0
   -7.4559    6.9527   -0.9670 C   0  0  0  0  0  0  0  0  0  0  0  0
   -0.1842    0.9572   -1.7213 N   0  0  0  0  0  0  0  0  0  0  0  0
   -2.1871    0.1475   -0.5461 N   0  3  2  0  0  0  0  0  0  0  0  0
   -3.9154    2.5923    3.1238 O   0  5  0  0  0  0  0  0  0  0  0  0
  -10.5808    5.1071   -1.5283 O   0  5  0  0  0  0  0  0  0  0  0  0
    1.9931    0.1288   -1.8579 O   0  0  0  0  0  0  0  0  0  0  0  0
   -2.1787    3.4333    1.9513 O   0  0  0  0  0  0  0  0  0  0  0  0
   -9.9149    6.3496    0.2680 O   0  0  0  0  0  0  0  0  0  0  0  0
   -4.9540    5.0393    1.1082 O   0  0  0  0  0  0  0  0  0  0  0  0
   -6.5269    4.7772   -1.2923 O   0  0  0  0  0  0  0  0  0  0  0  0
   -2.5699   -2.6167   -6.0137 H   0  0  0  0  0  0  0  0  0  0  0  0
    2.9468   -0.2197    2.9245 H   0  0  0  0  0  0  0  0  0  0  0  0
    0.9737   -1.3911    3.8596 H   0  0  0  0  0  0  0  0  0  0  0  0
   -0.1112   -2.6009   -5.6825 H   0  0  0  0  0  0  0  0  0  0  0  0
   -3.9676   -0.8256   -5.0158 H   0  0  0  0  0  0  0  0  0  0  0  0
    2.9311    0.5747    0.5916 H   0  0  0  0  0  0  0  0  0  0  0  0
   -1.0173   -1.7882    2.4624 H   0  0  0  0  0  0  0  0  0  0  0  0
    0.9511   -0.8030   -4.3582 H   0  0  0  0  0  0  0  0  0  0  0  0
   -2.9149    0.9765   -3.6901 H   0  0  0  0  0  0  0  0  0  0  0  0
   -4.7827    0.6482   -1.7543 H   0  0  0  0  0  0  0  0  0  0  0  0
   -6.2068    2.5146   -2.5065 H   0  0  0  0  0  0  0  0  0  0  0  0
   -1.1069   -1.5856   -1.0782 H   0  0  0  0  0  0  0  0  0  0  0  0
   -2.1120   -1.7756    0.3454 H   0  0  0  0  0  0  0  0  0  0  0  0
   -4.7577    6.5285   -0.3017 H   0  0  0  0  0  0  0  0  0  0  0  0
   -5.6912    6.9472    1.1486 H   0  0  0  0  0  0  0  0  0  0  0  0
   -0.9556    1.7693    0.0597 H   0  0  0  0  0  0  0  0  0  0  0  0
   -1.9455    2.0703   -1.3968 H   0  0  0  0  0  0  0  0  0  0  0  0
   -7.5082    5.3214    0.4333 H   0  0  0  0  0  0  0  0  0  0  0  0
    0.7437    1.4994   -3.4944 H   0  0  0  0  0  0  0  0  0  0  0  0
   -0.8368    2.2324   -3.2175 H   0  0  0  0  0  0  0  0  0  0  0  0
   -2.7292    0.7335    1.3966 H   0  0  0  0  0  0  0  0  0  0  0  0
   -3.8548   -0.3853    0.6144 H   0  0  0  0  0  0  0  0  0  0  0  0
   -9.1042    7.4527   -2.2117 H   0  0  0  0  0  0  0  0  0  0  0  0
   -8.4341    5.8549   -2.5438 H   0  0  0  0  0  0  0  0  0  0  0  0
   -7.6742    7.7021   -0.2080 H   0  0  0  0  0  0  0  0  0  0  0  0
   -6.7197    7.3746   -1.6508 H   0  0  0  0  0  0  0  0  0  0  0  0
   -2.6855   -0.0997   -1.4116 H   0  0  0  0  0  0  0  0  0  0  0  0
  1  4  1  0  0  0  0
  1  5  2  0  0  0  0
  2  3  1  0  0  0  0
  2  6  2  0  0  0  0
  3  7  2  0  0  0  0
  4  8  2  0  0  0  0
  5  9  1  0  0  0  0
  6 12  1  0  0  0  0
  7 14  1  0  0  0  0
  8 15  1  0  0  0  0
  9 15  2  0  0  0  0
 10 11  2  0  0  0  0
 10 16  1  0  0  0  0
 11 17  1  0  0  0  0
 12 14  2  0  0  0  0
 12 19  1  0  0  0  0
 13 16  2  0  0  0  0
 13 18  1  0  0  0  0
 13 20  1  0  0  0  0
 14 22  1  0  0  0  0
 15 26  1  0  0  0  0
 16 27  1  0  0  0  0
 17 18  2  0  0  0  0
 17 38  1  0  0  0  0
 18 37  1  0  0  0  0
 19 30  1  0  0  0  0
 19 34  2  0  0  0  0
 20 32  1  0  0  0  0
 20 35  2  0  0  0  0
 21 28  1  0  0  0  0
 21 33  1  0  0  0  0
 21 36  2  0  0  0  0
 22 31  1  0  0  0  0
 23 25  1  0  0  0  0
 23 37  1  0  0  0  0
 24 30  1  0  0  0  0
 24 31  1  0  0  0  0
 25 29  1  0  0  0  0
 25 38  1  0  0  0  0
 26 30  1  0  0  0  0
 27 31  1  0  0  0  0
 28 29  1  0  0  0  0
  1 39  1  0  0  0  0
  2 40  1  0  0  0  0
  3 41  1  0  0  0  0
  4 42  1  0  0  0  0
  5 43  1  0  0  0  0
  6 44  1  0  0  0  0
  7 45  1  0  0  0  0
  8 46  1  0  0  0  0
  9 47  1  0  0  0  0
 10 48  1  0  0  0  0
 11 49  1  0  0  0  0
 22 50  1  0  0  0  0
 22 51  1  0  0  0  0
 23 52  1  0  0  0  0
 23 53  1  0  0  0  0
 24 54  1  0  0  0  0
 24 55  1  0  0  0  0
 25 56  1  0  0  0  0
 26 57  1  0  0  0  0
 26 58  1  0  0  0  0
 27 59  1  0  0  0  0
 27 60  1  0  0  0  0
 28 61  1  0  0  0  0
 28 62  1  0  0  0  0
 29 63  1  0  0  0  0
 29 64  1  0  0  0  0
 31 65  1  0  0  0  0
M  CHG  3  31   1  32  -1  33  -1
M  END
$$$$
