@<TRIPOS>MOLECULE
AVX38787_3
   73    76     0     0     0
SMALL
NO_CHARGES

@<TRIPOS>ATOM
      1 C1          2.8337   -8.4091   -5.1300 C.ar      1 MOL         0.0000
      2 C2          3.1003   -9.1541   -3.9814 C.ar      1 MOL         0.0000
      3 C3          1.8558   -7.4147   -5.1050 C.ar      1 MOL         0.0000
      4 C4          2.3889   -8.9049   -2.8077 C.ar      1 MOL         0.0000
      5 C5          3.7873   -4.7230   -0.9091 C.ar      1 MOL         0.0000
      6 C6          4.4805   -3.5268   -0.7231 C.ar      1 MOL         0.0000
      7 C7          1.1444   -7.1655   -3.9313 C.ar      1 MOL         0.0000
      8 C8          3.1622   -4.7317    1.4265 C.ar      1 MOL         0.0000
      9 C9          1.4110   -7.9106   -2.7827 C.ar      1 MOL         0.0000
     10 C10         3.1247   -5.3218    0.1629 C.ar      1 MOL         0.0000
     11 C11         4.5065   -2.9289    0.5372 C.ar      1 MOL         0.0000
     12 C12         3.8661   -3.5422    1.6162 C.ar      1 MOL         0.0000
     13 C13         0.1282   -6.1219   -3.9330 C.2       1 MOL         0.0000
     14 C14         2.4672   -5.3737    2.5610 C.2       1 MOL         0.0000
     15 C15         4.6075    1.7442    0.4993 C.2       1 MOL         0.0000
     16 C16        -0.0429   -0.6618   -1.1150 C.3       1 MOL         0.0000
     17 C17         0.9531   -1.8173   -1.1005 C.3       1 MOL         0.0000
     18 C18        -1.4302   -1.1225   -1.5511 C.3       1 MOL         0.0000
     19 C19         0.9996   -2.5378   -2.4460 C.3       1 MOL         0.0000
     20 C20        -1.3877   -1.8420   -2.8973 C.3       1 MOL         0.0000
     21 C21         4.8933   -2.0200    3.0374 C.3       1 MOL         0.0000
     22 C22        -0.3932   -3.0107   -2.8840 C.3       1 MOL         0.0000
     23 C23         4.8569   -1.0503    1.8636 C.3       1 MOL         0.0000
     24 C24         0.0088   -5.8666    0.0913 C.3       1 MOL         0.0000
     25 C25         0.6606   -7.6641   -1.5071 C.3       1 MOL         0.0000
     26 C26         2.3851   -6.5988   -0.0723 C.3       1 MOL         0.0000
     27 C27         5.9022    0.9960    0.8384 C.3       1 MOL         0.0000
     28 C28        -0.3290   -3.6801   -4.2555 C.3       1 MOL         0.0000
     29 C29         5.8665    0.0740    2.0421 C.3       1 MOL         0.0000
     30 N1          0.5536   -4.8244   -4.2364 N.am      1 MOL         0.0000
     31 N2          1.0995   -6.4089   -0.7968 N.4       1 MOL         0.0000
     32 O1          1.2422   -5.0583    2.7889 O.co2     1 MOL         0.0000
     33 O2          4.4162    2.0142   -0.7180 O.co2     1 MOL         0.0000
     34 O3         -1.0520   -6.3928   -3.6540 O.2       1 MOL         0.0000
     35 O4          3.1140   -6.2229    3.2768 O.co2     1 MOL         0.0000
     36 O5          3.8738    1.9900    1.4999 O.co2     1 MOL         0.0000
     37 O6          3.8829   -3.0219    2.8833 O.3       1 MOL         0.0000
     38 O7          5.1855   -1.7446    0.6526 O.3       1 MOL         0.0000
     39 H1          3.3875   -8.6026   -6.0443 H         1 MOL         0.0000
     40 H2          3.8617   -9.9285   -4.0016 H         1 MOL         0.0000
     41 H3          1.6567   -6.8417   -6.0070 H         1 MOL         0.0000
     42 H4          2.6047   -9.4909   -1.9182 H         1 MOL         0.0000
     43 H5          3.7657   -5.1789   -1.8956 H         1 MOL         0.0000
     44 H6          4.9852   -3.0620   -1.5656 H         1 MOL         0.0000
     45 H7         -0.1004   -0.2122   -0.1173 H         1 MOL         0.0000
     46 H8          0.3138    0.1183   -1.7987 H         1 MOL         0.0000
     47 H9          1.9509   -1.4397   -0.8495 H         1 MOL         0.0000
     48 H10         0.6744   -2.5301   -0.3146 H         1 MOL         0.0000
     49 H11        -1.8476   -1.7947   -0.7913 H         1 MOL         0.0000
     50 H12        -2.1013   -0.2584   -1.6157 H         1 MOL         0.0000
     51 H13         1.4193   -1.8617   -3.2021 H         1 MOL         0.0000
     52 H14         1.6804   -3.3945   -2.3743 H         1 MOL         0.0000
     53 H15        -2.3918   -2.2076   -3.1439 H         1 MOL         0.0000
     54 H16        -1.1103   -1.1245   -3.6803 H         1 MOL         0.0000
     55 H17         5.8663   -2.5202    3.1251 H         1 MOL         0.0000
     56 H18         4.6943   -1.4964    3.9785 H         1 MOL         0.0000
     57 H19        -0.7476   -3.7649   -2.1729 H         1 MOL         0.0000
     58 H20         3.8527   -0.6205    1.7467 H         1 MOL         0.0000
     59 H21        -0.1763   -6.5997    0.8785 H         1 MOL         0.0000
     60 H22         0.3581   -4.9208    0.5099 H         1 MOL         0.0000
     61 H23        -0.8806   -5.7188   -0.5242 H         1 MOL         0.0000
     62 H24        -0.4138   -7.5608   -1.6933 H         1 MOL         0.0000
     63 H25         0.7990   -8.4899   -0.8009 H         1 MOL         0.0000
     64 H26         2.9776   -7.3020   -0.6714 H         1 MOL         0.0000
     65 H27         2.1376   -7.0994    0.8726 H         1 MOL         0.0000
     66 H28         6.6584    1.7674    1.0314 H         1 MOL         0.0000
     67 H29         6.2282    0.4424   -0.0511 H         1 MOL         0.0000
     68 H30         0.0485   -2.9799   -5.0067 H         1 MOL         0.0000
     69 H31        -1.3192   -4.0281   -4.5641 H         1 MOL         0.0000
     70 H32         5.6207    0.6109    2.9568 H         1 MOL         0.0000
     71 H33         6.8429   -0.3901    2.1794 H         1 MOL         0.0000
     72 H34         1.5404   -4.6488   -4.3947 H         1 MOL         0.0000
     73 H35         1.2545   -5.6983   -1.5305 H         1 MOL         0.0000
@<TRIPOS>BOND
     1    1    2 ar
     2    1    3 ar
     3    2    4 ar
     4    3    7 ar
     5    4    9 ar
     6    5    6 ar
     7    5   10 ar
     8    6   11 ar
     9    7    9 ar
    10    7   13 1
    11    8   10 ar
    12    8   12 ar
    13    8   14 1
    14    9   25 1
    15   10   26 1
    16   11   12 ar
    17   11   38 1
    18   12   37 1
    19   13   30 am
    20   13   34 2
    21   14   32 1
    22   14   35 2
    23   15   27 1
    24   15   33 1
    25   15   36 2
    26   16   17 1
    27   16   18 1
    28   17   19 1
    29   18   20 1
    30   19   22 1
    31   20   22 1
    32   21   23 1
    33   21   37 1
    34   22   28 1
    35   23   29 1
    36   23   38 1
    37   24   31 1
    38   25   31 1
    39   26   31 1
    40   27   29 1
    41   28   30 1
    42    1   39 1
    43    2   40 1
    44    3   41 1
    45    4   42 1
    46    5   43 1
    47    6   44 1
    48   16   45 1
    49   16   46 1
    50   17   47 1
    51   17   48 1
    52   18   49 1
    53   18   50 1
    54   19   51 1
    55   19   52 1
    56   20   53 1
    57   20   54 1
    58   21   55 1
    59   21   56 1
    60   22   57 1
    61   23   58 1
    62   24   59 1
    63   24   60 1
    64   24   61 1
    65   25   62 1
    66   25   63 1
    67   26   64 1
    68   26   65 1
    69   27   66 1
    70   27   67 1
    71   28   68 1
    72   28   69 1
    73   29   70 1
    74   29   71 1
    75   30   72 1
    76   31   73 1
