@<TRIPOS>MOLECULE
AVX38747_5
   70    73     0     0     0
SMALL
NO_CHARGES

@<TRIPOS>ATOM
      1 C1          1.8121    1.8090   -1.1916 C.ar      1 MOL         0.0000
      2 C2          1.2445    1.0062   -2.1923 C.ar      1 MOL         0.0000
      3 C3          1.4139    1.6723    0.1391 C.ar      1 MOL         0.0000
      4 C4          0.2716    0.0548   -1.8762 C.ar      1 MOL         0.0000
      5 C5         -3.5149   -2.9216    0.0712 C.ar      1 MOL         0.0000
      6 C6         -4.4917   -3.7126    0.6766 C.ar      1 MOL         0.0000
      7 C7         -1.7992   -4.4446    0.8346 C.ar      1 MOL         0.0000
      8 C8          0.4574    0.7177    0.4451 C.ar      1 MOL         0.0000
      9 C9         -0.1106   -0.0875   -0.5510 C.ar      1 MOL         0.0000
     10 C10        -2.1712   -3.2900    0.1456 C.ar      1 MOL         0.0000
     11 C11        -4.1216   -4.8749    1.3537 C.ar      1 MOL         0.0000
     12 C12        -2.7742   -5.2291    1.4513 C.ar      1 MOL         0.0000
     13 C13        -0.3746   -4.8262    0.9188 C.2       1 MOL         0.0000
     14 C14        -1.7701   -1.7970    3.6498 C.2       1 MOL         0.0000
     15 C15        -7.2271   -8.3611    1.1266 C.2       1 MOL         0.0000
     16 C16        -0.1388    0.4223    1.7852 C.3       1 MOL         0.0000
     17 C17        -3.3586   -6.8638    2.9935 C.3       1 MOL         0.0000
     18 C18        -1.1518   -1.0021    0.0354 C.3       1 MOL         0.0000
     19 C19        -0.7658   -0.9617    1.5347 C.3       1 MOL         0.0000
     20 C20        -4.6898   -6.9415    2.2578 C.3       1 MOL         0.0000
     21 C21        -1.1435   -2.4184   -0.5254 C.3       1 MOL         0.0000
     22 C22        -3.1245   -1.9619    4.3199 C.3       1 MOL         0.0000
     23 C23        -7.1185   -7.5742    2.4380 C.3       1 MOL         0.0000
     24 C24        -5.7674   -7.5727    3.1272 C.3       1 MOL         0.0000
     25 C25        -3.2014   -3.1584    5.2671 C.3       1 MOL         0.0000
     26 C26        -4.5771   -3.2907    5.9299 C.3       1 MOL         0.0000
     27 C27        -4.6140   -4.4830    6.8910 C.3       1 MOL         0.0000
     28 C28        -5.9571   -4.6579    7.5889 C.3       1 MOL         0.0000
     29 N1         -1.8889   -1.2126    2.3971 N.am      1 MOL         0.0000
     30 N2         -7.0364   -4.8836    6.5990 N.4       1 MOL         0.0000
     31 O1          0.1132   -5.5858    0.0039 O.co2     1 MOL         0.0000
     32 O2         -8.0603   -7.9335    0.2813 O.co2     1 MOL         0.0000
     33 O3          0.3226   -4.3842    1.9040 O.co2     1 MOL         0.0000
     34 O4         -0.7165   -2.1628    4.1635 O.2       1 MOL         0.0000
     35 O5         -6.4438   -9.3512    1.0499 O.co2     1 MOL         0.0000
     36 O6         -2.3453   -6.3396    2.1293 O.3       1 MOL         0.0000
     37 O7         -5.1274   -5.6211    1.9092 O.3       1 MOL         0.0000
     38 H1          2.5634    2.5477   -1.4572 H         1 MOL         0.0000
     39 H2          1.5604    1.1315   -3.2244 H         1 MOL         0.0000
     40 H3          1.8458    2.3010    0.9103 H         1 MOL         0.0000
     41 H4         -0.1719   -0.5499   -2.6597 H         1 MOL         0.0000
     42 H5         -3.8120   -2.0215   -0.4606 H         1 MOL         0.0000
     43 H6         -5.5367   -3.4238    0.6051 H         1 MOL         0.0000
     44 H7          0.6167    0.3767    2.5755 H         1 MOL         0.0000
     45 H8         -0.8902    1.1782    2.0386 H         1 MOL         0.0000
     46 H9         -3.4195   -6.2243    3.8834 H         1 MOL         0.0000
     47 H10        -3.0337   -7.8599    3.3124 H         1 MOL         0.0000
     48 H11        -2.1407   -0.5507   -0.1204 H         1 MOL         0.0000
     49 H12        -0.0171   -1.7371    1.7532 H         1 MOL         0.0000
     50 H13        -4.5869   -7.5210    1.3302 H         1 MOL         0.0000
     51 H14        -0.1470   -2.8572   -0.4016 H         1 MOL         0.0000
     52 H15        -1.3308   -2.3878   -1.6049 H         1 MOL         0.0000
     53 H16        -3.3807   -1.0389    4.8530 H         1 MOL         0.0000
     54 H17        -3.8621   -2.0962    3.5191 H         1 MOL         0.0000
     55 H18        -7.8433   -8.0272    3.1262 H         1 MOL         0.0000
     56 H19        -7.4498   -6.5443    2.2552 H         1 MOL         0.0000
     57 H20        -5.4461   -8.5787    3.3917 H         1 MOL         0.0000
     58 H21        -5.8229   -6.9877    4.0449 H         1 MOL         0.0000
     59 H22        -2.9973   -4.0694    4.6910 H         1 MOL         0.0000
     60 H23        -2.4225   -3.0861    6.0356 H         1 MOL         0.0000
     61 H24        -5.3438   -3.4205    5.1565 H         1 MOL         0.0000
     62 H25        -4.8157   -2.3685    6.4698 H         1 MOL         0.0000
     63 H26        -4.4003   -5.4007    6.3293 H         1 MOL         0.0000
     64 H27        -3.8177   -4.3782    7.6384 H         1 MOL         0.0000
     65 H28        -5.9605   -5.5143    8.2696 H         1 MOL         0.0000
     66 H29        -6.2277   -3.7542    8.1429 H         1 MOL         0.0000
     67 H30        -2.8149   -0.9491    2.0731 H         1 MOL         0.0000
     68 H31        -6.6489   -5.1089    5.6759 H         1 MOL         0.0000
     69 H32        -7.6240   -4.0481    6.4982 H         1 MOL         0.0000
     70 H33        -7.6418   -5.6615    6.8846 H         1 MOL         0.0000
@<TRIPOS>BOND
     1    1    2 ar
     2    1    3 ar
     3    2    4 ar
     4    3    8 ar
     5    4    9 ar
     6    5    6 ar
     7    5   10 ar
     8    6   11 ar
     9    7   10 ar
    10    7   12 ar
    11    7   13 1
    12    8    9 ar
    13    8   16 1
    14    9   18 1
    15   10   21 1
    16   11   12 ar
    17   11   37 1
    18   12   36 1
    19   13   31 1
    20   13   33 2
    21   14   22 1
    22   14   29 am
    23   14   34 2
    24   15   23 1
    25   15   32 1
    26   15   35 2
    27   16   19 1
    28   17   20 1
    29   17   36 1
    30   18   19 1
    31   18   21 1
    32   19   29 1
    33   20   24 1
    34   20   37 1
    35   22   25 1
    36   23   24 1
    37   25   26 1
    38   26   27 1
    39   27   28 1
    40   28   30 1
    41    1   38 1
    42    2   39 1
    43    3   40 1
    44    4   41 1
    45    5   42 1
    46    6   43 1
    47   16   44 1
    48   16   45 1
    49   17   46 1
    50   17   47 1
    51   18   48 1
    52   19   49 1
    53   20   50 1
    54   21   51 1
    55   21   52 1
    56   22   53 1
    57   22   54 1
    58   23   55 1
    59   23   56 1
    60   24   57 1
    61   24   58 1
    62   25   59 1
    63   25   60 1
    64   26   61 1
    65   26   62 1
    66   27   63 1
    67   27   64 1
    68   28   65 1
    69   28   66 1
    70   29   67 1
    71   30   68 1
    72   30   69 1
    73   30   70 1
