AVX38747_2
  -OEChem-04011314573D

 70 73  0     1  0  0  0  0  0999 V2000
   -2.0130    1.1304   -1.6264 C   0  0  0  0  0  0  0  0  0  0  0  0
   -1.6942    2.0339   -0.6017 C   0  0  0  0  0  0  0  0  0  0  0  0
   -1.3986   -0.1214   -1.6859 C   0  0  0  0  0  0  0  0  0  0  0  0
   -0.7561    1.6986    0.3777 C   0  0  0  0  0  0  0  0  0  0  0  0
    2.4990   -0.4695    3.7996 C   0  0  0  0  0  0  0  0  0  0  0  0
    3.3998   -1.1088    4.6517 C   0  0  0  0  0  0  0  0  0  0  0  0
    4.3020    0.0550    2.2765 C   0  0  0  0  0  0  0  0  0  0  0  0
   -0.4605   -0.4407   -0.7175 C   0  0  0  0  0  0  0  0  0  0  0  0
   -0.1380    0.4594    0.3068 C   0  0  0  0  0  0  0  0  0  0  0  0
    2.9503    0.1164    2.6165 C   0  0  0  0  0  0  0  0  0  0  0  0
    4.7538   -1.1584    4.3191 C   0  0  0  0  0  0  0  0  0  0  0  0
    5.2011   -0.5962    3.1214 C   0  0  0  0  0  0  0  0  0  0  0  0
    4.7744    0.6684    1.0184 C   0  0  0  0  0  0  0  0  0  0  0  0
    2.9458   -3.2328    0.7381 C   0  0  0  0  0  0  0  0  0  0  0  0
    8.4275   -3.1370    8.1996 C   0  0  0  0  0  0  0  0  0  0  0  0
    0.2911   -1.7253   -0.5655 C   0  0  0  0  0  0  0  0  0  0  0  0
    7.2617   -1.6093    3.4640 C   0  0  0  0  0  0  0  0  0  0  0  0
    0.8646   -0.1477    1.2506 C   0  0  1  0  0  0  0  0  0  0  0  0
    1.4297   -1.2961    0.3775 C   0  0  1  0  0  0  0  0  0  0  0  0
    6.9701   -1.4744    4.9527 C   0  0  2  0  0  0  0  0  0  0  0  0
    1.9534    0.8064    1.7243 C   0  0  0  0  0  0  0  0  0  0  0  0
    3.2340   -4.3225    1.7579 C   0  0  0  0  0  0  0  0  0  0  0  0
    7.6007   -2.2495    7.2618 C   0  0  0  0  0  0  0  0  0  0  0  0
    7.8172   -2.4366    5.7724 C   0  0  0  0  0  0  0  0  0  0  0  0
    4.6889   -4.7893    1.7660 C   0  0  0  0  0  0  0  0  0  0  0  0
    4.9455   -5.8822    2.8095 C   0  0  0  0  0  0  0  0  0  0  0  0
    6.4163   -6.3104    2.8097 C   0  0  0  0  0  0  0  0  0  0  0  0
    6.7335   -7.3899    3.8372 C   0  0  0  0  0  0  0  0  0  0  0  0
    1.9216   -2.3975    1.1602 N   0  0  0  0  0  0  0  0  0  0  0  0
    5.9405   -8.6135    3.5734 N   0  3  0  0  0  0  0  0  0  0  0  0
    4.7905   -0.0501   -0.0472 O   0  5  0  0  0  0  0  0  0  0  0  0
    8.2402   -2.9760    9.4367 O   0  5  0  0  0  0  0  0  0  0  0  0
    5.1516    1.8969    1.0376 O   0  0  0  0  0  0  0  0  0  0  0  0
    3.5435   -3.1363   -0.3303 O   0  0  0  0  0  0  0  0  0  0  0  0
    9.1987   -3.9435    7.6040 O   0  0  0  0  0  0  0  0  0  0  0  0
    6.5112   -0.6416    2.7235 O   0  0  0  0  0  0  0  0  0  0  0  0
    5.5921   -1.7817    5.2055 O   0  0  0  0  0  0  0  0  0  0  0  0
   -2.7498    1.4064   -2.3760 H   0  0  0  0  0  0  0  0  0  0  0  0
   -2.1879    3.0013   -0.5663 H   0  0  0  0  0  0  0  0  0  0  0  0
   -1.6542   -0.8234   -2.4723 H   0  0  0  0  0  0  0  0  0  0  0  0
   -0.5282    2.3982    1.1746 H   0  0  0  0  0  0  0  0  0  0  0  0
    1.4469   -0.4289    4.0694 H   0  0  0  0  0  0  0  0  0  0  0  0
    3.0412   -1.5525    5.5765 H   0  0  0  0  0  0  0  0  0  0  0  0
   -0.3540   -2.4884   -0.1161 H   0  0  0  0  0  0  0  0  0  0  0  0
    0.6841   -2.0923   -1.5187 H   0  0  0  0  0  0  0  0  0  0  0  0
    8.3221   -1.4280    3.2586 H   0  0  0  0  0  0  0  0  0  0  0  0
    7.0081   -2.6080    3.0857 H   0  0  0  0  0  0  0  0  0  0  0  0
    0.3271   -0.5529    2.1183 H   0  0  0  0  0  0  0  0  0  0  0  0
    2.2739   -0.9327   -0.2262 H   0  0  0  0  0  0  0  0  0  0  0  0
    7.1563   -0.4467    5.2933 H   0  0  0  0  0  0  0  0  0  0  0  0
    1.4981    1.6483    2.2583 H   0  0  0  0  0  0  0  0  0  0  0  0
    2.4673    1.2377    0.8577 H   0  0  0  0  0  0  0  0  0  0  0  0
    2.9422   -3.9729    2.7552 H   0  0  0  0  0  0  0  0  0  0  0  0
    2.5902   -5.1740    1.5051 H   0  0  0  0  0  0  0  0  0  0  0  0
    7.8659   -1.2140    7.5096 H   0  0  0  0  0  0  0  0  0  0  0  0
    6.5389   -2.3765    7.5075 H   0  0  0  0  0  0  0  0  0  0  0  0
    7.5855   -3.4512    5.4531 H   0  0  0  0  0  0  0  0  0  0  0  0
    8.8594   -2.2379    5.5239 H   0  0  0  0  0  0  0  0  0  0  0  0
    4.9306   -5.1856    0.7721 H   0  0  0  0  0  0  0  0  0  0  0  0
    5.3601   -3.9402    1.9423 H   0  0  0  0  0  0  0  0  0  0  0  0
    4.3119   -6.7506    2.5919 H   0  0  0  0  0  0  0  0  0  0  0  0
    4.6629   -5.5169    3.8023 H   0  0  0  0  0  0  0  0  0  0  0  0
    6.6748   -6.6991    1.8170 H   0  0  0  0  0  0  0  0  0  0  0  0
    7.0546   -5.4348    2.9815 H   0  0  0  0  0  0  0  0  0  0  0  0
    7.7881   -7.6799    3.8196 H   0  0  0  0  0  0  0  0  0  0  0  0
    6.4663   -7.0577    4.8448 H   0  0  0  0  0  0  0  0  0  0  0  0
    1.4984   -2.5726    2.0669 H   0  0  0  0  0  0  0  0  0  0  0  0
    5.5186   -8.5850    2.6384 H   0  0  0  0  0  0  0  0  0  0  0  0
    5.1823   -8.7155    4.2576 H   0  0  0  0  0  0  0  0  0  0  0  0
    6.5286   -9.4528    3.6279 H   0  0  0  0  0  0  0  0  0  0  0  0
  1  2  1  0  0  0  0
  1  3  2  0  0  0  0
  2  4  2  0  0  0  0
  3  8  1  0  0  0  0
  4  9  1  0  0  0  0
  5  6  2  0  0  0  0
  5 10  1  0  0  0  0
  6 11  1  0  0  0  0
  7 10  2  0  0  0  0
  7 12  1  0  0  0  0
  7 13  1  0  0  0  0
  8  9  2  0  0  0  0
  8 16  1  0  0  0  0
  9 18  1  0  0  0  0
 10 21  1  0  0  0  0
 11 12  2  0  0  0  0
 11 37  1  0  0  0  0
 12 36  1  0  0  0  0
 13 31  1  0  0  0  0
 13 33  2  0  0  0  0
 14 22  1  0  0  0  0
 14 29  1  0  0  0  0
 14 34  2  0  0  0  0
 15 23  1  0  0  0  0
 15 32  1  0  0  0  0
 15 35  2  0  0  0  0
 16 19  1  0  0  0  0
 17 20  1  0  0  0  0
 17 36  1  0  0  0  0
 18 19  1  0  0  0  0
 18 21  1  0  0  0  0
 19 29  1  0  0  0  0
 20 24  1  0  0  0  0
 20 37  1  0  0  0  0
 22 25  1  0  0  0  0
 23 24  1  0  0  0  0
 25 26  1  0  0  0  0
 26 27  1  0  0  0  0
 27 28  1  0  0  0  0
 28 30  1  0  0  0  0
  1 38  1  0  0  0  0
  2 39  1  0  0  0  0
  3 40  1  0  0  0  0
  4 41  1  0  0  0  0
  5 42  1  0  0  0  0
  6 43  1  0  0  0  0
 16 44  1  0  0  0  0
 16 45  1  0  0  0  0
 17 46  1  0  0  0  0
 17 47  1  0  0  0  0
 18 48  1  0  0  0  0
 19 49  1  0  0  0  0
 20 50  1  0  0  0  0
 21 51  1  0  0  0  0
 21 52  1  0  0  0  0
 22 53  1  0  0  0  0
 22 54  1  0  0  0  0
 23 55  1  0  0  0  0
 23 56  1  0  0  0  0
 24 57  1  0  0  0  0
 24 58  1  0  0  0  0
 25 59  1  0  0  0  0
 25 60  1  0  0  0  0
 26 61  1  0  0  0  0
 26 62  1  0  0  0  0
 27 63  1  0  0  0  0
 27 64  1  0  0  0  0
 28 65  1  0  0  0  0
 28 66  1  0  0  0  0
 29 67  1  0  0  0  0
 30 68  1  0  0  0  0
 30 69  1  0  0  0  0
 30 70  1  0  0  0  0
M  CHG  3  30   1  31  -1  32  -1
M  END
$$$$
