AVX38783_3
  -OEChem-04011315003D

 68 71  0     1  0  0  0  0  0999 V2000
    1.0838   -2.1280   -8.1572 C   0  0  0  0  0  0  0  0  0  0  0  0
    0.3597   -1.0093   -7.7452 C   0  0  0  0  0  0  0  0  0  0  0  0
    0.8609   -4.8713    0.0122 C   0  0  0  0  0  0  0  0  0  0  0  0
    1.6095   -3.0063   -7.2096 C   0  0  0  0  0  0  0  0  0  0  0  0
    0.1615   -0.7687   -6.3856 C   0  0  0  0  0  0  0  0  0  0  0  0
   -1.0082    1.4783   -2.4195 C   0  0  0  0  0  0  0  0  0  0  0  0
   -0.4535    2.7075   -2.0626 C   0  0  0  0  0  0  0  0  0  0  0  0
    1.8332   -5.1829   -0.9679 C   0  0  0  0  0  0  0  0  0  0  0  0
   -0.3560   -4.9231   -0.6270 C   0  0  0  0  0  0  0  0  0  0  0  0
    1.4113   -2.7657   -5.8500 C   0  0  0  0  0  0  0  0  0  0  0  0
    0.3802    0.3685   -0.7803 C   0  0  0  0  0  0  0  0  0  0  0  0
    0.6872   -1.6470   -5.4380 C   0  0  0  0  0  0  0  0  0  0  0  0
   -0.5958    0.3111   -1.7756 C   0  0  0  0  0  0  0  0  0  0  0  0
    0.5124    2.7672   -1.0576 C   0  0  0  0  0  0  0  0  0  0  0  0
    0.9447    1.5958   -0.4320 C   0  0  0  0  0  0  0  0  0  0  0  0
    1.1413   -5.4032   -2.1361 C   0  0  0  0  0  0  0  0  0  0  0  0
   -3.8245   -3.4076   -2.9524 C   0  0  0  0  0  0  0  0  0  0  0  0
   -3.1763   -2.5490   -3.7471 C   0  0  0  0  0  0  0  0  0  0  0  0
    1.9718   -3.6985   -4.8817 C   0  0  0  0  0  0  0  0  0  0  0  0
    0.8207   -0.8707   -0.1075 C   0  0  0  0  0  0  0  0  0  0  0  0
    0.4196    6.6550    1.5358 C   0  0  0  0  0  0  0  0  0  0  0  0
    2.6512    2.8105    0.5703 C   0  0  0  0  0  0  0  0  0  0  0  0
    1.7019    4.0000    0.5160 C   0  0  1  0  0  0  0  0  0  0  0  0
    0.4594   -1.3638   -3.9824 C   0  0  0  0  0  0  0  0  0  0  0  0
   -1.2157   -0.9880   -2.1764 C   0  0  0  0  0  0  0  0  0  0  0  0
    1.5675   -5.7676   -3.5288 C   0  0  0  0  0  0  0  0  0  0  0  0
   -1.7059   -2.5979   -4.0028 C   0  0  0  0  0  0  0  0  0  0  0  0
    1.5312    6.5104    0.4898 C   0  0  0  0  0  0  0  0  0  0  0  0
    2.4559    5.3166    0.6321 C   0  0  0  0  0  0  0  0  0  0  0  0
    1.1633   -4.7726   -4.4960 N   0  0  0  0  0  0  0  0  0  0  0  0
   -1.0008   -1.3248   -3.6097 N   0  3  2  0  0  0  0  0  0  0  0  0
    0.2001   -1.2478    0.9530 O   0  5  0  0  0  0  0  0  0  0  0  0
   -0.6433    7.2163    1.1532 O   0  5  0  0  0  0  0  0  0  0  0  0
    3.1102   -3.5156   -4.4182 O   0  0  0  0  0  0  0  0  0  0  0  0
    1.8079   -1.5240   -0.6080 O   0  0  0  0  0  0  0  0  0  0  0  0
    0.7083    6.1726    2.6689 O   0  0  0  0  0  0  0  0  0  0  0  0
   -0.1938   -5.2468   -1.9368 O   0  0  0  0  0  0  0  0  0  0  0  0
    1.9120    1.5853    0.5381 O   0  0  0  0  0  0  0  0  0  0  0  0
    1.0041    4.0051   -0.7369 O   0  0  0  0  0  0  0  0  0  0  0  0
    1.2383   -2.3159   -9.2159 H   0  0  0  0  0  0  0  0  0  0  0  0
   -0.0492   -0.3256   -8.4835 H   0  0  0  0  0  0  0  0  0  0  0  0
    1.0262   -4.6377    1.0539 H   0  0  0  0  0  0  0  0  0  0  0  0
    2.1729   -3.8739   -7.5434 H   0  0  0  0  0  0  0  0  0  0  0  0
   -0.4046    0.1056   -6.0753 H   0  0  0  0  0  0  0  0  0  0  0  0
   -1.7653    1.4410   -3.1985 H   0  0  0  0  0  0  0  0  0  0  0  0
   -0.7878    3.6127   -2.5621 H   0  0  0  0  0  0  0  0  0  0  0  0
    2.9044   -5.2388   -0.8360 H   0  0  0  0  0  0  0  0  0  0  0  0
   -1.3754   -4.7639   -0.3075 H   0  0  0  0  0  0  0  0  0  0  0  0
   -4.8964   -3.3227   -2.8102 H   0  0  0  0  0  0  0  0  0  0  0  0
   -3.3037   -4.2049   -2.4340 H   0  0  0  0  0  0  0  0  0  0  0  0
   -3.7464   -1.7708   -4.2478 H   0  0  0  0  0  0  0  0  0  0  0  0
    3.3569    2.8112   -0.2703 H   0  0  0  0  0  0  0  0  0  0  0  0
    3.2301    2.8192    1.5000 H   0  0  0  0  0  0  0  0  0  0  0  0
    0.9557    3.9377    1.3198 H   0  0  0  0  0  0  0  0  0  0  0  0
    0.9244   -2.1297   -3.3525 H   0  0  0  0  0  0  0  0  0  0  0  0
    0.8829   -0.3947   -3.6969 H   0  0  0  0  0  0  0  0  0  0  0  0
   -0.8059   -1.8249   -1.5965 H   0  0  0  0  0  0  0  0  0  0  0  0
   -2.3019   -0.9801   -2.0193 H   0  0  0  0  0  0  0  0  0  0  0  0
    2.6568   -5.8696   -3.5850 H   0  0  0  0  0  0  0  0  0  0  0  0
    1.1349   -6.7263   -3.8340 H   0  0  0  0  0  0  0  0  0  0  0  0
   -1.5129   -2.7398   -5.0705 H   0  0  0  0  0  0  0  0  0  0  0  0
   -1.2130   -3.4034   -3.4494 H   0  0  0  0  0  0  0  0  0  0  0  0
    2.1434    7.4176    0.5681 H   0  0  0  0  0  0  0  0  0  0  0  0
    1.0743    6.5166   -0.5078 H   0  0  0  0  0  0  0  0  0  0  0  0
    2.9842    5.3241    1.5840 H   0  0  0  0  0  0  0  0  0  0  0  0
    3.2008    5.3310   -0.1633 H   0  0  0  0  0  0  0  0  0  0  0  0
    0.2178   -4.8387   -4.8585 H   0  0  0  0  0  0  0  0  0  0  0  0
   -1.4233   -0.5712   -4.1762 H   0  0  0  0  0  0  0  0  0  0  0  0
  1  2  1  0  0  0  0
  1  4  2  0  0  0  0
  2  5  2  0  0  0  0
  3  8  1  0  0  0  0
  3  9  2  0  0  0  0
  4 10  1  0  0  0  0
  5 12  1  0  0  0  0
  6  7  2  0  0  0  0
  6 13  1  0  0  0  0
  7 14  1  0  0  0  0
  8 16  2  0  0  0  0
  9 37  1  0  0  0  0
 10 12  2  0  0  0  0
 10 19  1  0  0  0  0
 11 13  2  0  0  0  0
 11 15  1  0  0  0  0
 11 20  1  0  0  0  0
 12 24  1  0  0  0  0
 13 25  1  0  0  0  0
 14 15  2  0  0  0  0
 14 39  1  0  0  0  0
 15 38  1  0  0  0  0
 16 26  1  0  0  0  0
 16 37  1  0  0  0  0
 17 18  2  0  0  0  0
 18 27  1  0  0  0  0
 19 30  1  0  0  0  0
 19 34  2  0  0  0  0
 20 32  1  0  0  0  0
 20 35  2  0  0  0  0
 21 28  1  0  0  0  0
 21 33  1  0  0  0  0
 21 36  2  0  0  0  0
 22 23  1  0  0  0  0
 22 38  1  0  0  0  0
 23 29  1  0  0  0  0
 23 39  1  0  0  0  0
 24 31  1  0  0  0  0
 25 31  1  0  0  0  0
 26 30  1  0  0  0  0
 27 31  1  0  0  0  0
 28 29  1  0  0  0  0
  1 40  1  0  0  0  0
  2 41  1  0  0  0  0
  3 42  1  0  0  0  0
  4 43  1  0  0  0  0
  5 44  1  0  0  0  0
  6 45  1  0  0  0  0
  7 46  1  0  0  0  0
  8 47  1  0  0  0  0
  9 48  1  0  0  0  0
 17 49  1  0  0  0  0
 17 50  1  0  0  0  0
 18 51  1  0  0  0  0
 22 52  1  0  0  0  0
 22 53  1  0  0  0  0
 23 54  1  0  0  0  0
 24 55  1  0  0  0  0
 24 56  1  0  0  0  0
 25 57  1  0  0  0  0
 25 58  1  0  0  0  0
 26 59  1  0  0  0  0
 26 60  1  0  0  0  0
 27 61  1  0  0  0  0
 27 62  1  0  0  0  0
 28 63  1  0  0  0  0
 28 64  1  0  0  0  0
 29 65  1  0  0  0  0
 29 66  1  0  0  0  0
 30 67  1  0  0  0  0
 31 68  1  0  0  0  0
M  CHG  3  31   1  32  -1  33  -1
M  END
$$$$
