@<TRIPOS>MOLECULE
AVX38741_0
   65    69     0     0     0
SMALL
NO_CHARGES

@<TRIPOS>ATOM
      1 C1         -2.1057   -1.8265   -5.4310 C.ar      1 MOL         0.0000
      2 C2          2.0711   -0.3869    2.3041 C.ar      1 MOL         0.0000
      3 C3          0.9615   -1.0456    2.8299 C.ar      1 MOL         0.0000
      4 C4         -0.7233   -1.8175   -5.2450 C.ar      1 MOL         0.0000
      5 C5         -2.8914   -0.8195   -4.8702 C.ar      1 MOL         0.0000
      6 C6          2.0584    0.0589    0.9834 C.ar      1 MOL         0.0000
      7 C7         -0.1641   -1.2672    2.0349 C.ar      1 MOL         0.0000
      8 C8         -0.1267   -0.8018   -4.4981 C.ar      1 MOL         0.0000
      9 C9         -2.2948    0.1962   -4.1234 C.ar      1 MOL         0.0000
     10 C10        -4.8282    1.5580   -1.1613 C.ar      1 MOL         0.0000
     11 C11        -5.6196    2.6206   -1.5981 C.ar      1 MOL         0.0000
     12 C12         0.9252   -0.1492    0.1881 C.ar      1 MOL         0.0000
     13 C13        -4.1617    2.8422    0.7758 C.ar      1 MOL         0.0000
     14 C14        -0.1944   -0.8293    0.7041 C.ar      1 MOL         0.0000
     15 C15        -0.9124    0.2052   -3.9373 C.ar      1 MOL         0.0000
     16 C16        -4.0960    1.6708    0.0211 C.ar      1 MOL         0.0000
     17 C17        -5.6748    3.7975   -0.8510 C.ar      1 MOL         0.0000
     18 C18        -4.9637    3.9000    0.3467 C.ar      1 MOL         0.0000
     19 C19         0.9623    0.3300   -1.2176 C.2       1 MOL         0.0000
     20 C20        -3.3923    2.9542    2.0320 C.2       1 MOL         0.0000
     21 C21        -8.3393    8.3084   -3.0922 C.2       1 MOL         0.0000
     22 C22        -1.4078   -1.0930   -0.1449 C.3       1 MOL         0.0000
     23 C23        -6.0975    5.8741    0.8024 C.3       1 MOL         0.0000
     24 C24        -1.3156    1.3373   -0.8810 C.3       1 MOL         0.0000
     25 C25        -6.1677    6.0668   -0.7067 C.3       1 MOL         0.0000
     26 C26        -0.2708    1.2987   -3.1331 C.3       1 MOL         0.0000
     27 C27        -3.2476    0.5128    0.4574 C.3       1 MOL         0.0000
     28 C28        -7.2932    7.3102   -2.5823 C.3       1 MOL         0.0000
     29 C29        -7.2715    7.0417   -1.0898 C.3       1 MOL         0.0000
     30 N1         -0.1842    0.9572   -1.7213 N.am      1 MOL         0.0000
     31 N2         -2.1871    0.1475   -0.5461 N.4       1 MOL         0.0000
     32 O1         -3.9493    2.5817    3.1288 O.co2     1 MOL         0.0000
     33 O2         -8.3515    8.5248   -4.3349 O.co2     1 MOL         0.0000
     34 O3          1.9931    0.1288   -1.8579 O.2       1 MOL         0.0000
     35 O4         -2.1956    3.4200    1.9799 O.co2     1 MOL         0.0000
     36 O5         -9.0815    8.7888   -2.1876 O.co2     1 MOL         0.0000
     37 O6         -5.0036    5.0157    1.1408 O.3       1 MOL         0.0000
     38 O7         -6.4528    4.8128   -1.3418 O.3       1 MOL         0.0000
     39 H1         -2.5699   -2.6167   -6.0137 H         1 MOL         0.0000
     40 H2          2.9468   -0.2197    2.9245 H         1 MOL         0.0000
     41 H3          0.9737   -1.3911    3.8596 H         1 MOL         0.0000
     42 H4         -0.1112   -2.6009   -5.6825 H         1 MOL         0.0000
     43 H5         -3.9676   -0.8256   -5.0158 H         1 MOL         0.0000
     44 H6          2.9311    0.5747    0.5916 H         1 MOL         0.0000
     45 H7         -1.0173   -1.7882    2.4624 H         1 MOL         0.0000
     46 H8          0.9511   -0.8030   -4.3582 H         1 MOL         0.0000
     47 H9         -2.9149    0.9765   -3.6901 H         1 MOL         0.0000
     48 H10        -4.7849    0.6472   -1.7527 H         1 MOL         0.0000
     49 H11        -6.1776    2.5282   -2.5259 H         1 MOL         0.0000
     50 H12        -1.1069   -1.5856   -1.0782 H         1 MOL         0.0000
     51 H13        -2.1120   -1.7756    0.3454 H         1 MOL         0.0000
     52 H14        -5.9311    6.8311    1.3082 H         1 MOL         0.0000
     53 H15        -7.0200    5.4340    1.2025 H         1 MOL         0.0000
     54 H16        -0.9556    1.7693    0.0597 H         1 MOL         0.0000
     55 H17        -1.9455    2.0703   -1.3968 H         1 MOL         0.0000
     56 H18        -5.2083    6.4338   -1.0963 H         1 MOL         0.0000
     57 H19         0.7437    1.4994   -3.4944 H         1 MOL         0.0000
     58 H20        -0.8368    2.2324   -3.2175 H         1 MOL         0.0000
     59 H21        -2.7292    0.7335    1.3966 H         1 MOL         0.0000
     60 H22        -3.8548   -0.3853    0.6144 H         1 MOL         0.0000
     61 H23        -6.3158    7.7241   -2.8606 H         1 MOL         0.0000
     62 H24        -7.4117    6.3688   -3.1332 H         1 MOL         0.0000
     63 H25        -8.2192    6.6392   -0.7362 H         1 MOL         0.0000
     64 H26        -7.0808    7.9696   -0.5513 H         1 MOL         0.0000
     65 H27        -2.6855   -0.0997   -1.4116 H         1 MOL         0.0000
@<TRIPOS>BOND
     1    1    4 ar
     2    1    5 ar
     3    2    3 ar
     4    2    6 ar
     5    3    7 ar
     6    4    8 ar
     7    5    9 ar
     8    6   12 ar
     9    7   14 ar
    10    8   15 ar
    11    9   15 ar
    12   10   11 ar
    13   10   16 ar
    14   11   17 ar
    15   12   14 ar
    16   12   19 1
    17   13   16 ar
    18   13   18 ar
    19   13   20 1
    20   14   22 1
    21   15   26 1
    22   16   27 1
    23   17   18 ar
    24   17   38 1
    25   18   37 1
    26   19   30 am
    27   19   34 2
    28   20   32 1
    29   20   35 2
    30   21   28 1
    31   21   33 1
    32   21   36 2
    33   22   31 1
    34   23   25 1
    35   23   37 1
    36   24   30 1
    37   24   31 1
    38   25   29 1
    39   25   38 1
    40   26   30 1
    41   27   31 1
    42   28   29 1
    43    1   39 1
    44    2   40 1
    45    3   41 1
    46    4   42 1
    47    5   43 1
    48    6   44 1
    49    7   45 1
    50    8   46 1
    51    9   47 1
    52   10   48 1
    53   11   49 1
    54   22   50 1
    55   22   51 1
    56   23   52 1
    57   23   53 1
    58   24   54 1
    59   24   55 1
    60   25   56 1
    61   26   57 1
    62   26   58 1
    63   27   59 1
    64   27   60 1
    65   28   61 1
    66   28   62 1
    67   29   63 1
    68   29   64 1
    69   31   65 1
