AVX38789_2
  -OEChem-04011315023D

 64 67  0     1  0  0  0  0  0999 V2000
    0.8041   -1.4712   -8.3538 C   0  0  0  0  0  0  0  0  0  0  0  0
    0.0708   -0.3296   -8.0304 C   0  0  0  0  0  0  0  0  0  0  0  0
    5.4457   -6.2603   -4.7871 C   0  0  0  0  0  0  0  0  0  0  0  0
    1.2986   -2.2927   -7.3407 C   0  0  0  0  0  0  0  0  0  0  0  0
   -0.1679   -0.0093   -6.6939 C   0  0  0  0  0  0  0  0  0  0  0  0
    0.8019   -0.6244   -0.7686 C   0  0  0  0  0  0  0  0  0  0  0  0
    1.8108   -1.0844    0.0779 C   0  0  0  0  0  0  0  0  0  0  0  0
    4.3884   -5.7974   -3.9679 C   0  0  0  0  0  0  0  0  0  0  0  0
    6.0186   -5.1392   -5.3411 C   0  0  0  0  0  0  0  0  0  0  0  0
    1.0600   -1.9724   -6.0042 C   0  0  0  0  0  0  0  0  0  0  0  0
   -0.0766   -2.8695   -0.9522 C   0  0  0  0  0  0  0  0  0  0  0  0
    0.3267   -0.8308   -5.6808 C   0  0  0  0  0  0  0  0  0  0  0  0
   -0.1436   -1.5148   -1.2787 C   0  0  0  0  0  0  0  0  0  0  0  0
    1.8698   -2.4366    0.4160 C   0  0  0  0  0  0  0  0  0  0  0  0
    0.9398   -3.3323   -0.1161 C   0  0  0  0  0  0  0  0  0  0  0  0
    4.3909   -4.4264   -4.0794 C   0  0  0  0  0  0  0  0  0  0  0  0
    1.5885   -2.8471   -4.9662 C   0  0  0  0  0  0  0  0  0  0  0  0
   -1.0741   -3.8105   -1.5017 C   0  0  0  0  0  0  0  0  0  0  0  0
    3.4548   -3.3234    4.7231 C   0  0  0  0  0  0  0  0  0  0  0  0
    2.2139   -5.0857    0.7172 C   0  0  0  0  0  0  0  0  0  0  0  0
    2.6327   -4.1252    1.8223 C   0  0  1  0  0  0  0  0  0  0  0  0
   -2.2816   -1.3075   -4.4044 C   0  0  0  0  0  0  0  0  0  0  0  0
    0.0557   -0.4623   -4.2519 C   0  0  0  0  0  0  0  0  0  0  0  0
   -1.2157   -0.9880   -2.1764 C   0  0  0  0  0  0  0  0  0  0  0  0
    3.5402   -3.3457   -3.4772 C   0  0  0  0  0  0  0  0  0  0  0  0
    4.3923   -3.5886    3.5391 C   0  0  0  0  0  0  0  0  0  0  0  0
    3.9172   -4.5833    2.4974 C   0  0  0  0  0  0  0  0  0  0  0  0
    2.8706   -2.5585   -4.4874 N   0  0  0  0  0  0  0  0  0  0  0  0
   -1.0008   -1.3248   -3.6097 N   0  3  1  0  0  0  0  0  0  0  0  0
   -2.1535   -4.0194   -0.8361 O   0  5  0  0  0  0  0  0  0  0  0  0
    3.5109   -2.1733    5.2384 O   0  5  0  0  0  0  0  0  0  0  0  0
    0.9207   -3.8114   -4.5561 O   0  0  0  0  0  0  0  0  0  0  0  0
   -0.8242   -4.3844   -2.6243 O   0  0  0  0  0  0  0  0  0  0  0  0
    2.7197   -4.3053    5.0321 O   0  0  0  0  0  0  0  0  0  0  0  0
    5.3816   -4.0172   -4.9146 O   0  0  0  0  0  0  0  0  0  0  0  0
    0.9646   -4.6756    0.1520 O   0  0  0  0  0  0  0  0  0  0  0  0
    2.8704   -2.8242    1.2679 O   0  0  0  0  0  0  0  0  0  0  0  0
    0.9901   -1.7211   -9.3944 H   0  0  0  0  0  0  0  0  0  0  0  0
   -0.3138    0.3098   -8.8197 H   0  0  0  0  0  0  0  0  0  0  0  0
    5.7515   -7.2830   -4.9535 H   0  0  0  0  0  0  0  0  0  0  0  0
    1.8696   -3.1789   -7.6057 H   0  0  0  0  0  0  0  0  0  0  0  0
   -0.7408    0.8822   -6.4528 H   0  0  0  0  0  0  0  0  0  0  0  0
    0.7584    0.4318   -1.0216 H   0  0  0  0  0  0  0  0  0  0  0  0
    2.5369   -0.3824    0.4787 H   0  0  0  0  0  0  0  0  0  0  0  0
    3.7106   -6.3918   -3.3719 H   0  0  0  0  0  0  0  0  0  0  0  0
    6.8423   -4.9794   -6.0213 H   0  0  0  0  0  0  0  0  0  0  0  0
    2.9587   -5.1337   -0.0874 H   0  0  0  0  0  0  0  0  0  0  0  0
    2.0772   -6.0971    1.1145 H   0  0  0  0  0  0  0  0  0  0  0  0
    1.8397   -4.0329    2.5770 H   0  0  0  0  0  0  0  0  0  0  0  0
   -2.6787   -0.2912   -4.3757 H   0  0  0  0  0  0  0  0  0  0  0  0
   -2.0446   -1.6077   -5.4268 H   0  0  0  0  0  0  0  0  0  0  0  0
   -2.9732   -2.0122   -3.9387 H   0  0  0  0  0  0  0  0  0  0  0  0
    0.9582   -0.5618   -3.6393 H   0  0  0  0  0  0  0  0  0  0  0  0
   -0.2910    0.5735   -4.1695 H   0  0  0  0  0  0  0  0  0  0  0  0
   -2.2000   -1.3922   -1.9073 H   0  0  0  0  0  0  0  0  0  0  0  0
   -1.2836    0.1060   -2.1218 H   0  0  0  0  0  0  0  0  0  0  0  0
    2.7745   -3.7767   -2.8230 H   0  0  0  0  0  0  0  0  0  0  0  0
    4.1433   -2.6649   -2.8673 H   0  0  0  0  0  0  0  0  0  0  0  0
    5.3245   -3.9759    3.9693 H   0  0  0  0  0  0  0  0  0  0  0  0
    4.6326   -2.6297    3.0630 H   0  0  0  0  0  0  0  0  0  0  0  0
    3.7439   -5.5686    2.9269 H   0  0  0  0  0  0  0  0  0  0  0  0
    4.6705   -4.6871    1.7169 H   0  0  0  0  0  0  0  0  0  0  0  0
    3.3967   -1.7964   -4.9025 H   0  0  0  0  0  0  0  0  0  0  0  0
   -0.6472   -2.2946   -3.6529 H   0  0  0  0  0  0  0  0  0  0  0  0
  1  2  1  0  0  0  0
  1  4  2  0  0  0  0
  2  5  2  0  0  0  0
  3  8  1  0  0  0  0
  3  9  2  0  0  0  0
  4 10  1  0  0  0  0
  5 12  1  0  0  0  0
  6  7  2  0  0  0  0
  6 13  1  0  0  0  0
  7 14  1  0  0  0  0
  8 16  2  0  0  0  0
  9 35  1  0  0  0  0
 10 12  2  0  0  0  0
 10 17  1  0  0  0  0
 11 13  2  0  0  0  0
 11 15  1  0  0  0  0
 11 18  1  0  0  0  0
 12 23  1  0  0  0  0
 13 24  1  0  0  0  0
 14 15  2  0  0  0  0
 14 37  1  0  0  0  0
 15 36  1  0  0  0  0
 16 25  1  0  0  0  0
 16 35  1  0  0  0  0
 17 28  1  0  0  0  0
 17 32  2  0  0  0  0
 18 30  1  0  0  0  0
 18 33  2  0  0  0  0
 19 26  1  0  0  0  0
 19 31  1  0  0  0  0
 19 34  2  0  0  0  0
 20 21  1  0  0  0  0
 20 36  1  0  0  0  0
 21 27  1  0  0  0  0
 21 37  1  0  0  0  0
 22 29  1  0  0  0  0
 23 29  1  0  0  0  0
 24 29  1  0  0  0  0
 25 28  1  0  0  0  0
 26 27  1  0  0  0  0
  1 38  1  0  0  0  0
  2 39  1  0  0  0  0
  3 40  1  0  0  0  0
  4 41  1  0  0  0  0
  5 42  1  0  0  0  0
  6 43  1  0  0  0  0
  7 44  1  0  0  0  0
  8 45  1  0  0  0  0
  9 46  1  0  0  0  0
 20 47  1  0  0  0  0
 20 48  1  0  0  0  0
 21 49  1  0  0  0  0
 22 50  1  0  0  0  0
 22 51  1  0  0  0  0
 22 52  1  0  0  0  0
 23 53  1  0  0  0  0
 23 54  1  0  0  0  0
 24 55  1  0  0  0  0
 24 56  1  0  0  0  0
 25 57  1  0  0  0  0
 25 58  1  0  0  0  0
 26 59  1  0  0  0  0
 26 60  1  0  0  0  0
 27 61  1  0  0  0  0
 27 62  1  0  0  0  0
 28 63  1  0  0  0  0
 29 64  1  0  0  0  0
M  CHG  3  29   1  30  -1  31  -1
M  END
$$$$
