@<TRIPOS>MOLECULE
AVX38782_3
   71    74     0     0     0
SMALL
NO_CHARGES

@<TRIPOS>ATOM
      1 C1         -6.2396   -2.5576    1.8857 C.ar      1 MOL         0.0000
      2 C2         -6.0537   -3.9044    2.1971 C.ar      1 MOL         0.0000
      3 C3         -5.4370   -1.9474    0.9217 C.ar      1 MOL         0.0000
      4 C4         -5.0652   -4.6411    1.5446 C.ar      1 MOL         0.0000
      5 C5          1.1031   -4.2784    1.9688 C.ar      1 MOL         0.0000
      6 C6          1.9266   -4.2928    3.0947 C.ar      1 MOL         0.0000
      7 C7         -4.4485   -2.6841    0.2692 C.ar      1 MOL         0.0000
      8 C8         -0.7811   -3.6485    3.3468 C.ar      1 MOL         0.0000
      9 C9         -4.2626   -4.0310    0.5806 C.ar      1 MOL         0.0000
     10 C10        -0.2476   -3.9515    2.0939 C.ar      1 MOL         0.0000
     11 C11         1.3967   -3.9762    4.3458 C.ar      1 MOL         0.0000
     12 C12         0.0390   -3.6755    4.4752 C.ar      1 MOL         0.0000
     13 C13        -2.4285   -8.5218   -0.1428 C.2       1 MOL         0.0000
     14 C14        -1.9779   -7.6130    0.7290 C.2       1 MOL         0.0000
     15 C15        -3.6241   -2.0220   -0.7327 C.2       1 MOL         0.0000
     16 C16        -2.2136   -3.3119    3.4764 C.2       1 MOL         0.0000
     17 C17         4.3456   -1.7878    7.2380 C.2       1 MOL         0.0000
     18 C18         1.4184   -0.1943   -1.0504 C.3       1 MOL         0.0000
     19 C19         0.2602   -0.3170   -0.0384 C.3       1 MOL         0.0000
     20 C20         0.3462    0.0635   -2.1297 C.3       1 MOL         0.0000
     21 C21         0.2793   -3.7754    6.7827 C.3       1 MOL         0.0000
     22 C22        -0.6368   -0.7136   -1.2294 C.3       1 MOL         0.0000
     23 C23         1.7130   -3.3156    6.5537 C.3       1 MOL         0.0000
     24 C24        -3.2066   -4.8468   -0.1053 C.3       1 MOL         0.0000
     25 C25        -1.1002   -3.9377    0.8668 C.3       1 MOL         0.0000
     26 C26        -1.2733   -6.3572    0.3340 C.3       1 MOL         0.0000
     27 C27         4.0454   -3.2689    7.4967 C.3       1 MOL         0.0000
     28 C28        -2.0177   -0.1536   -1.1838 C.3       1 MOL         0.0000
     29 C29         2.5969   -3.6414    7.7487 C.3       1 MOL         0.0000
     30 N1         -2.8655   -0.9273   -0.3056 N.am      1 MOL         0.0000
     31 N2         -2.0067   -5.1134    0.7673 N.4       1 MOL         0.0000
     32 O1         -2.5676   -2.0809    3.3697 O.co2     1 MOL         0.0000
     33 O2          5.3293   -1.5355    6.4896 O.co2     1 MOL         0.0000
     34 O3         -3.6273   -2.4170   -1.9109 O.2       1 MOL         0.0000
     35 O4         -3.0512   -4.2629    3.6911 O.co2     1 MOL         0.0000
     36 O5          3.5464   -0.9898    7.8076 O.co2     1 MOL         0.0000
     37 O6         -0.5467   -3.3882    5.6798 O.3       1 MOL         0.0000
     38 O7          2.2593   -3.9868    5.4102 O.3       1 MOL         0.0000
     39 H1         -7.0094   -1.9834    2.3935 H         1 MOL         0.0000
     40 H2         -6.6788   -4.3790    2.9480 H         1 MOL         0.0000
     41 H3         -5.5911   -0.8968    0.6888 H         1 MOL         0.0000
     42 H4         -4.9290   -5.6901    1.7943 H         1 MOL         0.0000
     43 H5          1.5250   -4.5193    0.9965 H         1 MOL         0.0000
     44 H6          2.9795   -4.5386    2.9867 H         1 MOL         0.0000
     45 H7         -2.9376   -9.4134    0.2067 H         1 MOL         0.0000
     46 H8         -2.3005   -8.3947   -1.2120 H         1 MOL         0.0000
     47 H9         -2.1367   -7.7860    1.7903 H         1 MOL         0.0000
     48 H10         2.0825    0.6585   -0.8684 H         1 MOL         0.0000
     49 H11         2.0249   -1.0928   -1.1890 H         1 MOL         0.0000
     50 H12         0.4005   -1.1205    0.6947 H         1 MOL         0.0000
     51 H13        -0.0061    0.6012    0.4919 H         1 MOL         0.0000
     52 H14         0.1094    1.1132   -2.3225 H         1 MOL         0.0000
     53 H15         0.5557   -0.4330   -3.0845 H         1 MOL         0.0000
     54 H16         0.2125   -4.8646    6.8996 H         1 MOL         0.0000
     55 H17        -0.1373   -3.3107    7.6827 H         1 MOL         0.0000
     56 H18        -0.6635   -1.7908   -1.4267 H         1 MOL         0.0000
     57 H19         1.7476   -2.2346    6.3615 H         1 MOL         0.0000
     58 H20        -3.5970   -5.8236   -0.4104 H         1 MOL         0.0000
     59 H21        -2.8364   -4.3401   -1.0031 H         1 MOL         0.0000
     60 H22        -1.7417   -3.0479    0.8330 H         1 MOL         0.0000
     61 H23        -0.4905   -3.9382   -0.0458 H         1 MOL         0.0000
     62 H24        -1.1863   -6.2997   -0.7553 H         1 MOL         0.0000
     63 H25        -0.2708   -6.2874    0.7680 H         1 MOL         0.0000
     64 H26         4.6209   -3.5452    8.3892 H         1 MOL         0.0000
     65 H27         4.4462   -3.8570    6.6616 H         1 MOL         0.0000
     66 H28        -2.4696   -0.1659   -2.1802 H         1 MOL         0.0000
     67 H29        -2.0067    0.8761   -0.8145 H         1 MOL         0.0000
     68 H30         2.1928   -3.1305    8.6210 H         1 MOL         0.0000
     69 H31         2.5177   -4.7141    7.9235 H         1 MOL         0.0000
     70 H32        -2.9490   -0.6085    0.6542 H         1 MOL         0.0000
     71 H33        -2.3747   -5.3072    1.7131 H         1 MOL         0.0000
@<TRIPOS>BOND
     1    1    2 ar
     2    1    3 ar
     3    2    4 ar
     4    3    7 ar
     5    4    9 ar
     6    5    6 ar
     7    5   10 ar
     8    6   11 ar
     9    7    9 ar
    10    7   15 1
    11    8   10 ar
    12    8   12 ar
    13    8   16 1
    14    9   24 1
    15   10   25 1
    16   11   12 ar
    17   11   38 1
    18   12   37 1
    19   13   14 2
    20   14   26 1
    21   15   30 am
    22   15   34 2
    23   16   32 1
    24   16   35 2
    25   17   27 1
    26   17   33 1
    27   17   36 2
    28   18   19 1
    29   18   20 1
    30   19   22 1
    31   20   22 1
    32   21   23 1
    33   21   37 1
    34   22   28 1
    35   23   29 1
    36   23   38 1
    37   24   31 1
    38   25   31 1
    39   26   31 1
    40   27   29 1
    41   28   30 1
    42    1   39 1
    43    2   40 1
    44    3   41 1
    45    4   42 1
    46    5   43 1
    47    6   44 1
    48   13   45 1
    49   13   46 1
    50   14   47 1
    51   18   48 1
    52   18   49 1
    53   19   50 1
    54   19   51 1
    55   20   52 1
    56   20   53 1
    57   21   54 1
    58   21   55 1
    59   22   56 1
    60   23   57 1
    61   24   58 1
    62   24   59 1
    63   25   60 1
    64   25   61 1
    65   26   62 1
    66   26   63 1
    67   27   64 1
    68   27   65 1
    69   28   66 1
    70   28   67 1
    71   29   68 1
    72   29   69 1
    73   30   70 1
    74   31   71 1
