AVX38782_1
  -OEChem-04011315003D

 71 74  0     1  0  0  0  0  0999 V2000
   -1.7850   -7.4290   -2.3228 C   0  0  0  0  0  0  0  0  0  0  0  0
   -1.3289   -7.0681   -1.0550 C   0  0  0  0  0  0  0  0  0  0  0  0
   -3.0487   -7.0225   -2.7512 C   0  0  0  0  0  0  0  0  0  0  0  0
   -2.1365   -6.3008   -0.2156 C   0  0  0  0  0  0  0  0  0  0  0  0
   -7.3814   -7.7952    2.7199 C   0  0  0  0  0  0  0  0  0  0  0  0
   -7.6586   -8.8765    3.5566 C   0  0  0  0  0  0  0  0  0  0  0  0
   -3.8563   -6.2552   -1.9118 C   0  0  0  0  0  0  0  0  0  0  0  0
   -5.5086   -8.9977    1.7753 C   0  0  0  0  0  0  0  0  0  0  0  0
   -3.4003   -5.8943   -0.6440 C   0  0  0  0  0  0  0  0  0  0  0  0
   -6.3046   -7.8535    1.8345 C   0  0  0  0  0  0  0  0  0  0  0  0
   -6.8544  -10.0156    3.5077 C   0  0  0  0  0  0  0  0  0  0  0  0
   -5.7936  -10.0848    2.6020 C   0  0  0  0  0  0  0  0  0  0  0  0
   -3.5585   -3.3652    3.5552 C   0  0  0  0  0  0  0  0  0  0  0  0
   -3.9632   -4.6272    3.3748 C   0  0  0  0  0  0  0  0  0  0  0  0
   -5.1718   -5.8448   -2.3839 C   0  0  0  0  0  0  0  0  0  0  0  0
   -4.3751   -9.0592    0.8299 C   0  0  0  0  0  0  0  0  0  0  0  0
   -7.6257  -14.0495    7.4577 C   0  0  0  0  0  0  0  0  0  0  0  0
  -10.2715   -7.2426   -1.4318 C   0  0  0  0  0  0  0  0  0  0  0  0
   -8.8682   -7.8733   -1.5480 C   0  0  0  0  0  0  0  0  0  0  0  0
   -9.8461   -6.2755   -2.5563 C   0  0  0  0  0  0  0  0  0  0  0  0
   -5.5676  -12.3404    3.1031 C   0  0  0  0  0  0  0  0  0  0  0  0
   -8.3895   -6.5180   -2.1087 C   0  0  0  0  0  0  0  0  0  0  0  0
   -6.0952  -11.9849    4.4869 C   0  0  2  0  0  0  0  0  0  0  0  0
   -4.2482   -5.0702    0.2795 C   0  0  0  0  0  0  0  0  0  0  0  0
   -6.0297   -6.6743    0.9589 C   0  0  0  0  0  0  0  0  0  0  0  0
   -5.1760   -5.0094    2.5920 C   0  0  0  0  0  0  0  0  0  0  0  0
   -7.0883  -12.8864    6.6155 C   0  0  0  0  0  0  0  0  0  0  0  0
   -7.4027   -6.6171   -3.2218 C   0  0  0  0  0  0  0  0  0  0  0  0
   -6.6420  -13.2112    5.2030 C   0  0  0  0  0  0  0  0  0  0  0  0
   -6.0708   -6.8631   -2.7175 N   0  0  0  0  0  0  0  0  0  0  0  0
   -4.8548   -5.8751    1.4004 N   0  3  2  0  0  0  0  0  0  0  0  0
   -4.5851   -9.5184   -0.3520 O   0  5  0  0  0  0  0  0  0  0  0  0
   -7.9961  -13.7705    8.6309 O   0  5  0  0  0  0  0  0  0  0  0  0
   -5.4519   -4.6394   -2.4966 O   0  0  0  0  0  0  0  0  0  0  0  0
   -3.2222   -8.6515    1.2257 O   0  0  0  0  0  0  0  0  0  0  0  0
   -7.6426  -15.1614    6.8549 O   0  0  0  0  0  0  0  0  0  0  0  0
   -4.9893  -11.1875    2.4832 O   0  0  0  0  0  0  0  0  0  0  0  0
   -7.1641  -11.0359    4.3679 O   0  0  0  0  0  0  0  0  0  0  0  0
   -1.1564   -8.0264   -2.9770 H   0  0  0  0  0  0  0  0  0  0  0  0
   -0.3449   -7.3851   -0.7218 H   0  0  0  0  0  0  0  0  0  0  0  0
   -3.3931   -7.3112   -3.7411 H   0  0  0  0  0  0  0  0  0  0  0  0
   -1.7714   -6.0246    0.7701 H   0  0  0  0  0  0  0  0  0  0  0  0
   -8.0083   -6.9087    2.7691 H   0  0  0  0  0  0  0  0  0  0  0  0
   -8.4923   -8.8180    4.2509 H   0  0  0  0  0  0  0  0  0  0  0  0
   -2.6648   -3.1518    4.1313 H   0  0  0  0  0  0  0  0  0  0  0  0
   -4.1051   -2.5284    3.1347 H   0  0  0  0  0  0  0  0  0  0  0  0
   -3.3762   -5.4300    3.8132 H   0  0  0  0  0  0  0  0  0  0  0  0
  -11.0893   -7.9177   -1.7093 H   0  0  0  0  0  0  0  0  0  0  0  0
  -10.5053   -6.7789   -0.4701 H   0  0  0  0  0  0  0  0  0  0  0  0
   -8.4215   -8.1328   -0.5806 H   0  0  0  0  0  0  0  0  0  0  0  0
   -8.7891   -8.7357   -2.2152 H   0  0  0  0  0  0  0  0  0  0  0  0
  -10.1049   -6.5854   -3.5722 H   0  0  0  0  0  0  0  0  0  0  0  0
  -10.1885   -5.2453   -2.4027 H   0  0  0  0  0  0  0  0  0  0  0  0
   -4.7846  -13.1030    3.1708 H   0  0  0  0  0  0  0  0  0  0  0  0
   -6.3606  -12.7246    2.4486 H   0  0  0  0  0  0  0  0  0  0  0  0
   -8.0378   -5.8188   -1.3423 H   0  0  0  0  0  0  0  0  0  0  0  0
   -5.3044  -11.5300    5.0988 H   0  0  0  0  0  0  0  0  0  0  0  0
   -3.6628   -4.2712    0.7471 H   0  0  0  0  0  0  0  0  0  0  0  0
   -5.0802   -4.6033   -0.2585 H   0  0  0  0  0  0  0  0  0  0  0  0
   -5.8256   -6.9802   -0.0751 H   0  0  0  0  0  0  0  0  0  0  0  0
   -6.8828   -5.9842    0.9352 H   0  0  0  0  0  0  0  0  0  0  0  0
   -5.6690   -4.1150    2.1989 H   0  0  0  0  0  0  0  0  0  0  0  0
   -5.8993   -5.5711    3.1915 H   0  0  0  0  0  0  0  0  0  0  0  0
   -6.2189  -12.4937    7.1578 H   0  0  0  0  0  0  0  0  0  0  0  0
   -7.8429  -12.0900    6.5990 H   0  0  0  0  0  0  0  0  0  0  0  0
   -7.3759   -5.6852   -3.7946 H   0  0  0  0  0  0  0  0  0  0  0  0
   -7.6604   -7.4384   -3.8969 H   0  0  0  0  0  0  0  0  0  0  0  0
   -7.4542  -13.6209    4.6050 H   0  0  0  0  0  0  0  0  0  0  0  0
   -5.8415  -13.9500    5.2303 H   0  0  0  0  0  0  0  0  0  0  0  0
   -5.7680   -7.8303   -2.6663 H   0  0  0  0  0  0  0  0  0  0  0  0
   -4.1236   -6.5363    1.7097 H   0  0  0  0  0  0  0  0  0  0  0  0
  1  2  1  0  0  0  0
  1  3  2  0  0  0  0
  2  4  2  0  0  0  0
  3  7  1  0  0  0  0
  4  9  1  0  0  0  0
  5  6  2  0  0  0  0
  5 10  1  0  0  0  0
  6 11  1  0  0  0  0
  7  9  2  0  0  0  0
  7 15  1  0  0  0  0
  8 10  2  0  0  0  0
  8 12  1  0  0  0  0
  8 16  1  0  0  0  0
  9 24  1  0  0  0  0
 10 25  1  0  0  0  0
 11 12  2  0  0  0  0
 11 38  1  0  0  0  0
 12 37  1  0  0  0  0
 13 14  2  0  0  0  0
 14 26  1  0  0  0  0
 15 30  1  0  0  0  0
 15 34  2  0  0  0  0
 16 32  1  0  0  0  0
 16 35  2  0  0  0  0
 17 27  1  0  0  0  0
 17 33  1  0  0  0  0
 17 36  2  0  0  0  0
 18 19  1  0  0  0  0
 18 20  1  0  0  0  0
 19 22  1  0  0  0  0
 20 22  1  0  0  0  0
 21 23  1  0  0  0  0
 21 37  1  0  0  0  0
 22 28  1  0  0  0  0
 23 29  1  0  0  0  0
 23 38  1  0  0  0  0
 24 31  1  0  0  0  0
 25 31  1  0  0  0  0
 26 31  1  0  0  0  0
 27 29  1  0  0  0  0
 28 30  1  0  0  0  0
  1 39  1  0  0  0  0
  2 40  1  0  0  0  0
  3 41  1  0  0  0  0
  4 42  1  0  0  0  0
  5 43  1  0  0  0  0
  6 44  1  0  0  0  0
 13 45  1  0  0  0  0
 13 46  1  0  0  0  0
 14 47  1  0  0  0  0
 18 48  1  0  0  0  0
 18 49  1  0  0  0  0
 19 50  1  0  0  0  0
 19 51  1  0  0  0  0
 20 52  1  0  0  0  0
 20 53  1  0  0  0  0
 21 54  1  0  0  0  0
 21 55  1  0  0  0  0
 22 56  1  0  0  0  0
 23 57  1  0  0  0  0
 24 58  1  0  0  0  0
 24 59  1  0  0  0  0
 25 60  1  0  0  0  0
 25 61  1  0  0  0  0
 26 62  1  0  0  0  0
 26 63  1  0  0  0  0
 27 64  1  0  0  0  0
 27 65  1  0  0  0  0
 28 66  1  0  0  0  0
 28 67  1  0  0  0  0
 29 68  1  0  0  0  0
 29 69  1  0  0  0  0
 30 70  1  0  0  0  0
 31 71  1  0  0  0  0
M  CHG  3  31   1  32  -1  33  -1
M  END
$$$$
