AVX38781_1
  -OEChem-04011314593D

 77 80  0     1  0  0  0  0  0999 V2000
    4.6094   -6.1174   -5.3479 C   0  0  0  0  0  0  0  0  0  0  0  0
    3.7780   -6.5376   -4.3098 C   0  0  0  0  0  0  0  0  0  0  0  0
    4.0610   -5.5170   -6.4812 C   0  0  0  0  0  0  0  0  0  0  0  0
    2.3981   -6.3577   -4.4050 C   0  0  0  0  0  0  0  0  0  0  0  0
   -1.7356   -9.1421   -8.0817 C   0  0  0  0  0  0  0  0  0  0  0  0
   -1.9681  -10.5012   -8.2940 C   0  0  0  0  0  0  0  0  0  0  0  0
    2.6810   -5.3371   -6.5765 C   0  0  0  0  0  0  0  0  0  0  0  0
    0.4815   -9.6434   -7.2578 C   0  0  0  0  0  0  0  0  0  0  0  0
    1.8496   -5.7574   -5.5384 C   0  0  0  0  0  0  0  0  0  0  0  0
   -0.5146   -8.7143   -7.5591 C   0  0  0  0  0  0  0  0  0  0  0  0
   -0.9774  -11.4319   -7.9797 C   0  0  0  0  0  0  0  0  0  0  0  0
    0.2548  -11.0014   -7.4827 C   0  0  0  0  0  0  0  0  0  0  0  0
   -2.4047   -6.0138   -3.1115 C   0  0  0  0  0  0  0  0  0  0  0  0
   -1.8964   -6.9500   -3.9202 C   0  0  0  0  0  0  0  0  0  0  0  0
    2.1346   -4.7081   -7.7713 C   0  0  0  0  0  0  0  0  0  0  0  0
    1.7763   -9.1857   -6.7134 C   0  0  0  0  0  0  0  0  0  0  0  0
   -2.2960  -16.9713   -8.1956 C   0  0  0  0  0  0  0  0  0  0  0  0
   -1.4268   -6.4675  -12.5378 C   0  0  0  0  0  0  0  0  0  0  0  0
   -1.5159   -5.0235  -12.0541 C   0  0  0  0  0  0  0  0  0  0  0  0
   -0.7479   -7.3637  -11.5067 C   0  0  0  0  0  0  0  0  0  0  0  0
   -0.1471   -4.4782  -11.6531 C   0  0  0  0  0  0  0  0  0  0  0  0
    0.6221   -6.8223  -11.1045 C   0  0  0  0  0  0  0  0  0  0  0  0
    1.0755  -13.1541   -7.7698 C   0  0  0  0  0  0  0  0  0  0  0  0
    0.5353   -5.3724  -10.6091 C   0  0  0  0  0  0  0  0  0  0  0  0
   -0.3513  -13.6254   -7.5216 C   0  0  2  0  0  0  0  0  0  0  0  0
    0.3621   -5.5767   -5.6147 C   0  0  0  0  0  0  0  0  0  0  0  0
   -0.3016   -7.2524   -7.3352 C   0  0  0  0  0  0  0  0  0  0  0  0
   -1.7962   -6.8051   -5.4030 C   0  0  0  0  0  0  0  0  0  0  0  0
   -1.9616  -15.5463   -7.7390 C   0  0  0  0  0  0  0  0  0  0  0  0
    1.9234   -4.8362  -10.2641 C   0  0  0  0  0  0  0  0  0  0  0  0
   -0.5713  -15.0319   -8.0592 C   0  0  0  0  0  0  0  0  0  0  0  0
    2.3784   -5.3474   -8.9912 N   0  0  0  0  0  0  0  0  0  0  0  0
   -0.3747   -6.8601   -5.9018 N   0  3  2  0  0  0  0  0  0  0  0  0
    2.7218   -8.8995   -7.5358 O   0  5  0  0  0  0  0  0  0  0  0  0
   -3.4549  -17.3908   -7.9266 O   0  5  0  0  0  0  0  0  0  0  0  0
    1.5022   -3.6417   -7.6876 O   0  0  0  0  0  0  0  0  0  0  0  0
    1.9079   -9.0914   -5.4384 O   0  0  0  0  0  0  0  0  0  0  0  0
   -1.3547  -17.5537   -8.8077 O   0  0  0  0  0  0  0  0  0  0  0  0
    1.2781  -11.8629   -7.1869 O   0  0  0  0  0  0  0  0  0  0  0  0
   -1.2723  -12.7530   -8.1909 O   0  0  0  0  0  0  0  0  0  0  0  0
    5.6842   -6.2571   -5.2742 H   0  0  0  0  0  0  0  0  0  0  0  0
    4.2057   -7.0052   -3.4276 H   0  0  0  0  0  0  0  0  0  0  0  0
    4.7195   -5.1948   -7.2839 H   0  0  0  0  0  0  0  0  0  0  0  0
    1.7593   -6.6883   -3.5903 H   0  0  0  0  0  0  0  0  0  0  0  0
   -2.5151   -8.4239   -8.3224 H   0  0  0  0  0  0  0  0  0  0  0  0
   -2.9259  -10.8262   -8.6908 H   0  0  0  0  0  0  0  0  0  0  0  0
   -2.4459   -6.1767   -2.0400 H   0  0  0  0  0  0  0  0  0  0  0  0
   -2.7850   -5.0751   -3.4987 H   0  0  0  0  0  0  0  0  0  0  0  0
   -1.5236   -7.8714   -3.4804 H   0  0  0  0  0  0  0  0  0  0  0  0
   -2.4322   -6.8475  -12.7514 H   0  0  0  0  0  0  0  0  0  0  0  0
   -0.8636   -6.5028  -13.4784 H   0  0  0  0  0  0  0  0  0  0  0  0
   -1.9457   -4.3969  -12.8439 H   0  0  0  0  0  0  0  0  0  0  0  0
   -2.1967   -4.9669  -11.1957 H   0  0  0  0  0  0  0  0  0  0  0  0
   -1.3840   -7.4434  -10.6165 H   0  0  0  0  0  0  0  0  0  0  0  0
   -0.6398   -8.3757  -11.9132 H   0  0  0  0  0  0  0  0  0  0  0  0
    0.4848   -4.3989  -12.5471 H   0  0  0  0  0  0  0  0  0  0  0  0
   -0.2642   -3.4624  -11.2568 H   0  0  0  0  0  0  0  0  0  0  0  0
    1.0477   -7.4608  -10.3212 H   0  0  0  0  0  0  0  0  0  0  0  0
    1.2999   -6.8826  -11.9658 H   0  0  0  0  0  0  0  0  0  0  0  0
    1.7956  -13.8381   -7.3084 H   0  0  0  0  0  0  0  0  0  0  0  0
    1.3054  -13.0906   -8.8412 H   0  0  0  0  0  0  0  0  0  0  0  0
   -0.0570   -5.3514   -9.6878 H   0  0  0  0  0  0  0  0  0  0  0  0
   -0.5853  -13.6065   -6.4484 H   0  0  0  0  0  0  0  0  0  0  0  0
   -0.0384   -5.1882   -4.6722 H   0  0  0  0  0  0  0  0  0  0  0  0
    0.0894   -4.8730   -6.4085 H   0  0  0  0  0  0  0  0  0  0  0  0
    0.6838   -6.9300   -7.6950 H   0  0  0  0  0  0  0  0  0  0  0  0
   -1.0557   -6.6517   -7.8599 H   0  0  0  0  0  0  0  0  0  0  0  0
   -2.1949   -5.8351   -5.7153 H   0  0  0  0  0  0  0  0  0  0  0  0
   -2.3378   -7.5927   -5.9364 H   0  0  0  0  0  0  0  0  0  0  0  0
   -2.0757  -15.5413   -6.6477 H   0  0  0  0  0  0  0  0  0  0  0  0
   -2.7190  -14.8636   -8.1441 H   0  0  0  0  0  0  0  0  0  0  0  0
    1.9072   -3.7441  -10.1987 H   0  0  0  0  0  0  0  0  0  0  0  0
    2.6536   -5.1330  -11.0227 H   0  0  0  0  0  0  0  0  0  0  0  0
   -0.3797  -15.0208   -9.1308 H   0  0  0  0  0  0  0  0  0  0  0  0
    0.1754  -15.6739   -7.5928 H   0  0  0  0  0  0  0  0  0  0  0  0
    2.9546   -6.1826   -9.0086 H   0  0  0  0  0  0  0  0  0  0  0  0
    0.0989   -7.5945   -5.3507 H   0  0  0  0  0  0  0  0  0  0  0  0
  1  2  1  0  0  0  0
  1  3  2  0  0  0  0
  2  4  2  0  0  0  0
  3  7  1  0  0  0  0
  4  9  1  0  0  0  0
  5  6  2  0  0  0  0
  5 10  1  0  0  0  0
  6 11  1  0  0  0  0
  7  9  2  0  0  0  0
  7 15  1  0  0  0  0
  8 10  2  0  0  0  0
  8 12  1  0  0  0  0
  8 16  1  0  0  0  0
  9 26  1  0  0  0  0
 10 27  1  0  0  0  0
 11 12  2  0  0  0  0
 11 40  1  0  0  0  0
 12 39  1  0  0  0  0
 13 14  2  0  0  0  0
 14 28  1  0  0  0  0
 15 32  1  0  0  0  0
 15 36  2  0  0  0  0
 16 34  1  0  0  0  0
 16 37  2  0  0  0  0
 17 29  1  0  0  0  0
 17 35  1  0  0  0  0
 17 38  2  0  0  0  0
 18 19  1  0  0  0  0
 18 20  1  0  0  0  0
 19 21  1  0  0  0  0
 20 22  1  0  0  0  0
 21 24  1  0  0  0  0
 22 24  1  0  0  0  0
 23 25  1  0  0  0  0
 23 39  1  0  0  0  0
 24 30  1  0  0  0  0
 25 31  1  0  0  0  0
 25 40  1  0  0  0  0
 26 33  1  0  0  0  0
 27 33  1  0  0  0  0
 28 33  1  0  0  0  0
 29 31  1  0  0  0  0
 30 32  1  0  0  0  0
  1 41  1  0  0  0  0
  2 42  1  0  0  0  0
  3 43  1  0  0  0  0
  4 44  1  0  0  0  0
  5 45  1  0  0  0  0
  6 46  1  0  0  0  0
 13 47  1  0  0  0  0
 13 48  1  0  0  0  0
 14 49  1  0  0  0  0
 18 50  1  0  0  0  0
 18 51  1  0  0  0  0
 19 52  1  0  0  0  0
 19 53  1  0  0  0  0
 20 54  1  0  0  0  0
 20 55  1  0  0  0  0
 21 56  1  0  0  0  0
 21 57  1  0  0  0  0
 22 58  1  0  0  0  0
 22 59  1  0  0  0  0
 23 60  1  0  0  0  0
 23 61  1  0  0  0  0
 24 62  1  0  0  0  0
 25 63  1  0  0  0  0
 26 64  1  0  0  0  0
 26 65  1  0  0  0  0
 27 66  1  0  0  0  0
 27 67  1  0  0  0  0
 28 68  1  0  0  0  0
 28 69  1  0  0  0  0
 29 70  1  0  0  0  0
 29 71  1  0  0  0  0
 30 72  1  0  0  0  0
 30 73  1  0  0  0  0
 31 74  1  0  0  0  0
 31 75  1  0  0  0  0
 32 76  1  0  0  0  0
 33 77  1  0  0  0  0
M  CHG  3  33   1  34  -1  35  -1
M  END
$$$$
