@<TRIPOS>MOLECULE
AVX38747_6
   70    73     0     0     0
SMALL
NO_CHARGES

@<TRIPOS>ATOM
      1 C1         -2.0130    1.1304   -1.6264 C.ar      1 MOL         0.0000
      2 C2         -1.6942    2.0339   -0.6017 C.ar      1 MOL         0.0000
      3 C3         -1.3986   -0.1214   -1.6859 C.ar      1 MOL         0.0000
      4 C4         -0.7561    1.6986    0.3777 C.ar      1 MOL         0.0000
      5 C5          2.5000   -0.4642    3.8027 C.ar      1 MOL         0.0000
      6 C6          3.3982   -1.1172    4.6470 C.ar      1 MOL         0.0000
      7 C7          4.3019    0.0550    2.2765 C.ar      1 MOL         0.0000
      8 C8         -0.4605   -0.4407   -0.7175 C.ar      1 MOL         0.0000
      9 C9         -0.1380    0.4594    0.3068 C.ar      1 MOL         0.0000
     10 C10         2.9503    0.1164    2.6165 C.ar      1 MOL         0.0000
     11 C11         4.7476   -1.1910    4.3005 C.ar      1 MOL         0.0000
     12 C12         5.2029   -0.5865    3.1268 C.ar      1 MOL         0.0000
     13 C13         4.7762    0.6790    1.0243 C.2       1 MOL         0.0000
     14 C14         2.9458   -3.2328    0.7381 C.2       1 MOL         0.0000
     15 C15         6.9203   -5.0993    5.6621 C.2       1 MOL         0.0000
     16 C16         0.2911   -1.7253   -0.5655 C.3       1 MOL         0.0000
     17 C17         7.3843   -0.9621    3.8288 C.3       1 MOL         0.0000
     18 C18         0.8646   -0.1477    1.2506 C.3       1 MOL         0.0000
     19 C19         1.4297   -1.2961    0.3775 C.3       1 MOL         0.0000
     20 C20         6.8357   -2.1850    4.5520 C.3       1 MOL         0.0000
     21 C21         1.9534    0.8064    1.7243 C.3       1 MOL         0.0000
     22 C22         3.2340   -4.3225    1.7579 C.3       1 MOL         0.0000
     23 C23         7.2009   -3.8081    6.4398 C.3       1 MOL         0.0000
     24 C24         7.7779   -2.6459    5.6543 C.3       1 MOL         0.0000
     25 C25         4.3559   -5.2732    1.3430 C.3       1 MOL         0.0000
     26 C26         4.6244   -6.3540    2.3961 C.3       1 MOL         0.0000
     27 C27         5.7695   -7.2745    1.9624 C.3       1 MOL         0.0000
     28 C28         6.0890   -8.3647    2.9778 C.3       1 MOL         0.0000
     29 N1          1.9216   -2.3975    1.1602 N.am      1 MOL         0.0000
     30 N2          4.9112   -9.2362    3.1989 N.4       1 MOL         0.0000
     31 O1          4.7910   -0.0296   -0.0480 O.co2     1 MOL         0.0000
     32 O2          5.9678   -5.8126    6.0810 O.co2     1 MOL         0.0000
     33 O3          5.1562    1.9065    1.0550 O.co2     1 MOL         0.0000
     34 O4          3.5435   -3.1363   -0.3303 O.2       1 MOL         0.0000
     35 O5          7.6851   -5.2845    4.6718 O.co2     1 MOL         0.0000
     36 O6          6.5195   -0.5967    2.7484 O.3       1 MOL         0.0000
     37 O7          5.5769   -1.8634    5.1592 O.3       1 MOL         0.0000
     38 H1         -2.7498    1.4064   -2.3760 H         1 MOL         0.0000
     39 H2         -2.1879    3.0013   -0.5663 H         1 MOL         0.0000
     40 H3         -1.6542   -0.8234   -2.4723 H         1 MOL         0.0000
     41 H4         -0.5282    2.3982    1.1746 H         1 MOL         0.0000
     42 H5          1.4491   -0.4171    4.0761 H         1 MOL         0.0000
     43 H6          3.0373   -1.5753    5.5638 H         1 MOL         0.0000
     44 H7         -0.3540   -2.4884   -0.1161 H         1 MOL         0.0000
     45 H8          0.6841   -2.0923   -1.5187 H         1 MOL         0.0000
     46 H9          7.4830   -0.0996    4.5002 H         1 MOL         0.0000
     47 H10         8.3700   -1.1748    3.4016 H         1 MOL         0.0000
     48 H11         0.3271   -0.5529    2.1183 H         1 MOL         0.0000
     49 H12         2.2739   -0.9327   -0.2262 H         1 MOL         0.0000
     50 H13         6.6712   -3.0112    3.8469 H         1 MOL         0.0000
     51 H14         1.4981    1.6483    2.2583 H         1 MOL         0.0000
     52 H15         2.4673    1.2377    0.8577 H         1 MOL         0.0000
     53 H16         3.4652   -3.8622    2.7257 H         1 MOL         0.0000
     54 H17         2.3083   -4.8985    1.8791 H         1 MOL         0.0000
     55 H18         7.9237   -4.0739    7.2214 H         1 MOL         0.0000
     56 H19         6.2784   -3.4992    6.9473 H         1 MOL         0.0000
     57 H20         8.7351   -2.8983    5.2012 H         1 MOL         0.0000
     58 H21         7.9361   -1.7958    6.3175 H         1 MOL         0.0000
     59 H22         4.0674   -5.7594    0.4029 H         1 MOL         0.0000
     60 H23         5.2760   -4.7115    1.1420 H         1 MOL         0.0000
     61 H24         3.7154   -6.9484    2.5491 H         1 MOL         0.0000
     62 H25         4.8670   -5.8824    3.3540 H         1 MOL         0.0000
     63 H26         5.4986   -7.7594    1.0164 H         1 MOL         0.0000
     64 H27         6.6677   -6.6765    1.7642 H         1 MOL         0.0000
     65 H28         6.9089   -9.0093    2.6476 H         1 MOL         0.0000
     66 H29         6.3400   -7.9291    3.9494 H         1 MOL         0.0000
     67 H30         1.4984   -2.5726    2.0669 H         1 MOL         0.0000
     68 H31         4.2018   -9.0887    2.4723 H         1 MOL         0.0000
     69 H32         4.4755   -9.0426    4.1079 H         1 MOL         0.0000
     70 H33         5.1775  -10.2272    3.1823 H         1 MOL         0.0000
@<TRIPOS>BOND
     1    1    2 ar
     2    1    3 ar
     3    2    4 ar
     4    3    8 ar
     5    4    9 ar
     6    5    6 ar
     7    5   10 ar
     8    6   11 ar
     9    7   10 ar
    10    7   12 ar
    11    7   13 1
    12    8    9 ar
    13    8   16 1
    14    9   18 1
    15   10   21 1
    16   11   12 ar
    17   11   37 1
    18   12   36 1
    19   13   31 1
    20   13   33 2
    21   14   22 1
    22   14   29 am
    23   14   34 2
    24   15   23 1
    25   15   32 1
    26   15   35 2
    27   16   19 1
    28   17   20 1
    29   17   36 1
    30   18   19 1
    31   18   21 1
    32   19   29 1
    33   20   24 1
    34   20   37 1
    35   22   25 1
    36   23   24 1
    37   25   26 1
    38   26   27 1
    39   27   28 1
    40   28   30 1
    41    1   38 1
    42    2   39 1
    43    3   40 1
    44    4   41 1
    45    5   42 1
    46    6   43 1
    47   16   44 1
    48   16   45 1
    49   17   46 1
    50   17   47 1
    51   18   48 1
    52   19   49 1
    53   20   50 1
    54   21   51 1
    55   21   52 1
    56   22   53 1
    57   22   54 1
    58   23   55 1
    59   23   56 1
    60   24   57 1
    61   24   58 1
    62   25   59 1
    63   25   60 1
    64   26   61 1
    65   26   62 1
    66   27   63 1
    67   27   64 1
    68   28   65 1
    69   28   66 1
    70   29   67 1
    71   30   68 1
    72   30   69 1
    73   30   70 1
