@<TRIPOS>MOLECULE
AVX38709_0
   47    50     0     0     0
SMALL
NO_CHARGES

@<TRIPOS>ATOM
      1 C1          2.2966   -1.4376    4.3437 C.ar      1 MOL         0.0000
      2 C2          2.1131    5.5758    2.7007 C.ar      1 MOL         0.0000
      3 C3          1.6097   -0.2457    4.5745 C.ar      1 MOL         0.0000
      4 C4          2.8979   -1.6677    3.1063 C.ar      1 MOL         0.0000
      5 C5          3.3078    4.8958    2.4650 C.ar      1 MOL         0.0000
      6 C6          0.8924    4.9444    2.4623 C.ar      1 MOL         0.0000
      7 C7         -2.1733   -0.3037   -2.2387 C.ar      1 MOL         0.0000
      8 C8         -0.9615    0.0156   -1.6099 C.ar      1 MOL         0.0000
      9 C9          1.5240    0.7160    3.5678 C.ar      1 MOL         0.0000
     10 C10         2.8122   -0.7060    2.0996 C.ar      1 MOL         0.0000
     11 C11         3.2820    3.5842    1.9908 C.ar      1 MOL         0.0000
     12 C12         0.8665    3.6329    1.9881 C.ar      1 MOL         0.0000
     13 C13        -2.8805    0.7266   -2.8756 C.ar      1 MOL         0.0000
     14 C14        -0.4669    1.3240   -1.6149 C.ar      1 MOL         0.0000
     15 C15         2.1252    0.4858    2.3304 C.ar      1 MOL         0.0000
     16 C16         2.0612    2.9528    1.7523 C.ar      1 MOL         0.0000
     17 C17        -1.1613    2.3611   -2.2462 C.ar      1 MOL         0.0000
     18 C18        -2.3597    2.0088   -2.8599 C.ar      1 MOL         0.0000
     19 C19        -4.0810    0.8663   -3.5986 C.2       1 MOL         0.0000
     20 C20         0.7990    1.5860   -0.9413 C.2       1 MOL         0.0000
     21 C21        -0.6417    3.7585   -2.2568 C.3       1 MOL         0.0000
     22 C22        -5.0637   -0.1779   -3.9334 C.3       1 MOL         0.0000
     23 C23         2.0324    1.5290    1.2373 C.3       1 MOL         0.0000
     24 N1         -4.2912    2.1241   -3.9983 N.2       1 MOL         0.0000
     25 N2          0.8578    1.3019    0.4265 N.am      1 MOL         0.0000
     26 O1          1.7592    2.0594   -1.5711 O.2       1 MOL         0.0000
     27 O2         -3.1999    2.8449   -3.5290 O.3       1 MOL         0.0000
     28 H1          2.3643   -2.1858    5.1282 H         1 MOL         0.0000
     29 H2          2.1334    6.5966    3.0713 H         1 MOL         0.0000
     30 H3          1.1424   -0.0659    5.5383 H         1 MOL         0.0000
     31 H4          3.4336   -2.5951    2.9267 H         1 MOL         0.0000
     32 H5          4.2584    5.3869    2.6516 H         1 MOL         0.0000
     33 H6         -0.0381    5.4732    2.6468 H         1 MOL         0.0000
     34 H7         -2.5457   -1.3235   -2.2271 H         1 MOL         0.0000
     35 H8         -0.4066   -0.7777   -1.1130 H         1 MOL         0.0000
     36 H9          0.9866    1.6416    3.7565 H         1 MOL         0.0000
     37 H10         3.2836   -0.8940    1.1386 H         1 MOL         0.0000
     38 H11         4.2179    3.0622    1.8098 H         1 MOL         0.0000
     39 H12        -0.0893    3.1490    1.8051 H         1 MOL         0.0000
     40 H13        -0.0037    3.9227   -3.1340 H         1 MOL         0.0000
     41 H14        -1.4613    4.4887   -2.2817 H         1 MOL         0.0000
     42 H15        -0.0538    3.9724   -1.3545 H         1 MOL         0.0000
     43 H16        -5.8355   -0.2680   -3.1497 H         1 MOL         0.0000
     44 H17        -5.5816    0.0267   -4.8875 H         1 MOL         0.0000
     45 H18        -4.5936   -1.1707   -4.0523 H         1 MOL         0.0000
     46 H19         2.8735    1.4005    0.5436 H         1 MOL         0.0000
     47 H20         0.0237    0.9756    0.9036 H         1 MOL         0.0000
@<TRIPOS>BOND
     1    1    3 ar
     2    1    4 ar
     3    2    5 ar
     4    2    6 ar
     5    3    9 ar
     6    4   10 ar
     7    5   11 ar
     8    6   12 ar
     9    7    8 ar
    10    7   13 ar
    11    8   14 ar
    12    9   15 ar
    13   10   15 ar
    14   11   16 ar
    15   12   16 ar
    16   13   18 ar
    17   13   19 1
    18   14   17 ar
    19   14   20 1
    20   15   23 1
    21   16   23 1
    22   17   18 ar
    23   17   21 1
    24   18   27 1
    25   19   22 1
    26   19   24 2
    27   20   25 am
    28   20   26 2
    29   23   25 1
    30   24   27 1
    31    1   28 1
    32    2   29 1
    33    3   30 1
    34    4   31 1
    35    5   32 1
    36    6   33 1
    37    7   34 1
    38    8   35 1
    39    9   36 1
    40   10   37 1
    41   11   38 1
    42   12   39 1
    43   21   40 1
    44   21   41 1
    45   21   42 1
    46   22   43 1
    47   22   44 1
    48   22   45 1
    49   23   46 1
    50   25   47 1
