@<TRIPOS>MOLECULE
AVX38710_0
   40    42     0     0     0
SMALL
NO_CHARGES

@<TRIPOS>ATOM
      1 C1          7.0361    4.3000    2.0224 C.ar      1 MOL         0.0000
      2 C2          5.8287    4.0624    1.3505 C.ar      1 MOL         0.0000
      3 C3          7.8397    3.1980    2.3498 C.ar      1 MOL         0.0000
      4 C4          5.4320    2.7641    1.0134 C.ar      1 MOL         0.0000
      5 C5          6.2233    1.6561    1.3334 C.ar      1 MOL         0.0000
      6 C6          7.4143    1.9283    1.9999 C.ar      1 MOL         0.0000
      7 C7          9.0720    2.9685    2.9918 C.2       1 MOL         0.0000
      8 C8          4.1398    2.5856    0.3023 C.2       1 MOL         0.0000
      9 C9         -0.1574    2.6624    2.7552 C.3       1 MOL         0.0000
     10 C10         0.7181    1.4930    2.3126 C.3       1 MOL         0.0000
     11 C11         0.4558    4.0081    2.3772 C.3       1 MOL         0.0000
     12 C12         1.0459    1.5685    0.8207 C.3       1 MOL         0.0000
     13 C13         0.7838    4.0777    0.8851 C.3       1 MOL         0.0000
     14 C14         1.6645    2.9126    0.4141 C.3       1 MOL         0.0000
     15 C15         5.8086    0.2688    0.9779 C.3       1 MOL         0.0000
     16 C16         9.9865    3.9620    3.5790 C.3       1 MOL         0.0000
     17 N1          9.3877    1.6708    3.0389 N.2       1 MOL         0.0000
     18 N2          3.0131    3.0391    0.9711 N.am      1 MOL         0.0000
     19 O1          4.1312    2.0432   -0.7996 O.2       1 MOL         0.0000
     20 O2          8.3363    1.0149    2.4103 O.3       1 MOL         0.0000
     21 H1          7.3319    5.3128    2.2781 H         1 MOL         0.0000
     22 H2          5.1990    4.9116    1.0930 H         1 MOL         0.0000
     23 H3         -1.1520    2.5703    2.3020 H         1 MOL         0.0000
     24 H4         -0.2990    2.6196    3.8432 H         1 MOL         0.0000
     25 H5          1.6470    1.4872    2.8931 H         1 MOL         0.0000
     26 H6          0.2016    0.5491    2.5241 H         1 MOL         0.0000
     27 H7         -0.2426    4.8133    2.6342 H         1 MOL         0.0000
     28 H8          1.3669    4.1753    2.9620 H         1 MOL         0.0000
     29 H9          1.7337    0.7462    0.5566 H         1 MOL         0.0000
     30 H10         0.1281    1.3861    0.2366 H         1 MOL         0.0000
     31 H11        -0.1550    4.0956    0.3062 H         1 MOL         0.0000
     32 H12         1.2855    5.0365    0.6663 H         1 MOL         0.0000
     33 H13         1.7799    2.9524   -0.6660 H         1 MOL         0.0000
     34 H14         6.1877   -0.0010   -0.0156 H         1 MOL         0.0000
     35 H15         6.1898   -0.4602    1.7050 H         1 MOL         0.0000
     36 H16         4.7152    0.1685    0.9718 H         1 MOL         0.0000
     37 H17         9.7495    4.1466    4.6409 H         1 MOL         0.0000
     38 H18        11.0421    3.6408    3.5253 H         1 MOL         0.0000
     39 H19         9.9399    4.9334    3.0545 H         1 MOL         0.0000
     40 H20         3.0927    3.4208    1.9086 H         1 MOL         0.0000
@<TRIPOS>BOND
     1    1    2 ar
     2    1    3 ar
     3    2    4 ar
     4    3    6 ar
     5    3    7 1
     6    4    5 ar
     7    4    8 1
     8    5    6 ar
     9    5   15 1
    10    6   20 1
    11    7   16 1
    12    7   17 2
    13    8   18 am
    14    8   19 2
    15    9   10 1
    16    9   11 1
    17   10   12 1
    18   11   13 1
    19   12   14 1
    20   13   14 1
    21   14   18 1
    22   17   20 1
    23    1   21 1
    24    2   22 1
    25    9   23 1
    26    9   24 1
    27   10   25 1
    28   10   26 1
    29   11   27 1
    30   11   28 1
    31   12   29 1
    32   12   30 1
    33   13   31 1
    34   13   32 1
    35   14   33 1
    36   15   34 1
    37   15   35 1
    38   15   36 1
    39   16   37 1
    40   16   38 1
    41   16   39 1
    42   18   40 1
