@<TRIPOS>MOLECULE
AVX38671_1
   49    51     0     0     0
SMALL
NO_CHARGES

@<TRIPOS>ATOM
      1 C1          1.4156    2.8835    1.9937 C.ar      1 MOL         0.0000
      2 C2          0.4876    1.9193    2.3869 C.ar      1 MOL         0.0000
      3 C3          2.1587    2.7015    0.8273 C.ar      1 MOL         0.0000
      4 C4          0.3027    0.7730    1.6139 C.ar      1 MOL         0.0000
      5 C5          1.9739    1.5553    0.0543 C.ar      1 MOL         0.0000
      6 C6         -1.0852   -1.7100   -5.7535 C.ar      1 MOL         0.0000
      7 C7         -1.2235   -2.7001   -6.7292 C.ar      1 MOL         0.0000
      8 C8         -0.3571   -0.1004   -7.4290 C.ar      1 MOL         0.0000
      9 C9          1.0459    0.5910    0.4475 C.ar      1 MOL         0.0000
     10 C10        -0.6546   -0.4176   -6.1014 C.ar      1 MOL         0.0000
     11 C11        -0.9234   -2.3611   -8.0325 C.ar      1 MOL         0.0000
     12 C12        -0.5020   -1.0961   -8.3731 C.ar      1 MOL         0.0000
     13 C13         0.0944    1.2449   -7.8191 C.2       1 MOL         0.0000
     14 C14         1.7761   -1.7788    0.0399 C.2       1 MOL         0.0000
     15 C15         0.0426    0.0064   -2.6485 C.2       1 MOL         0.0000
     16 C16        -0.5774   -2.3026  -10.1677 C.3       1 MOL         0.0000
     17 C17         1.8904   -3.7022    1.6220 C.3       1 MOL         0.0000
     18 C18         1.8035    0.0073   -4.4311 C.3       1 MOL         0.0000
     19 C19        -0.5216    0.6122   -5.0170 C.3       1 MOL         0.0000
     20 C20         0.8463   -0.6505   -0.3903 C.3       1 MOL         0.0000
     21 N1          1.2028   -2.5871    1.0117 N.am      1 MOL         0.0000
     22 N2          1.0674   -0.3942   -1.7956 N.am      1 MOL         0.0000
     23 N3          0.4295    0.2018   -3.9871 N.am      1 MOL         0.0000
     24 O1         -0.7877    2.1232   -8.1495 O.co2     1 MOL         0.0000
     25 O2          1.3569    1.4997   -7.8177 O.co2     1 MOL         0.0000
     26 O3          2.9133   -1.9128   -0.4079 O.2       1 MOL         0.0000
     27 O4         -1.1157    0.1657   -2.2516 O.2       1 MOL         0.0000
     28 O5         -0.9992   -3.1883   -9.1104 O.3       1 MOL         0.0000
     29 O6         -0.2608   -0.9730   -9.7068 O.3       1 MOL         0.0000
     30 H1          1.5585    3.7766    2.5950 H         1 MOL         0.0000
     31 H2         -0.0919    2.0613    3.2945 H         1 MOL         0.0000
     32 H3          2.8805    3.4526    0.5203 H         1 MOL         0.0000
     33 H4         -0.4224    0.0270    1.9281 H         1 MOL         0.0000
     34 H5          2.5574    1.4220   -0.8528 H         1 MOL         0.0000
     35 H6         -1.3152   -1.9487   -4.7178 H         1 MOL         0.0000
     36 H7         -1.5553   -3.6978   -6.4652 H         1 MOL         0.0000
     37 H8          0.3111   -2.7281  -10.6483 H         1 MOL         0.0000
     38 H9         -1.3809   -2.2346  -10.9101 H         1 MOL         0.0000
     39 H10         1.7062   -4.6155    1.0503 H         1 MOL         0.0000
     40 H11         1.5360   -3.8503    2.6456 H         1 MOL         0.0000
     41 H12         2.9671   -3.5141    1.6476 H         1 MOL         0.0000
     42 H13         1.9527   -1.0279   -4.7488 H         1 MOL         0.0000
     43 H14         2.4988    0.2293   -3.6171 H         1 MOL         0.0000
     44 H15         2.0261    0.6691   -5.2724 H         1 MOL         0.0000
     45 H16        -0.1793    1.5669   -5.4311 H         1 MOL         0.0000
     46 H17        -1.4847    0.7959   -4.5292 H         1 MOL         0.0000
     47 H18        -0.1912   -0.9990   -0.3191 H         1 MOL         0.0000
     48 H19         0.2541   -2.3971    1.3209 H         1 MOL         0.0000
     49 H20         2.0003   -0.5102   -2.1729 H         1 MOL         0.0000
@<TRIPOS>BOND
     1    1    2 ar
     2    1    3 ar
     3    2    4 ar
     4    3    5 ar
     5    4    9 ar
     6    5    9 ar
     7    6    7 ar
     8    6   10 ar
     9    7   11 ar
    10    8   10 ar
    11    8   12 ar
    12    8   13 1
    13    9   20 1
    14   10   19 1
    15   11   12 ar
    16   11   28 1
    17   12   29 1
    18   13   24 1
    19   13   25 2
    20   14   20 1
    21   14   21 am
    22   14   26 2
    23   15   22 am
    24   15   23 am
    25   15   27 2
    26   16   28 1
    27   16   29 1
    28   17   21 1
    29   18   23 1
    30   19   23 1
    31   20   22 1
    32    1   30 1
    33    2   31 1
    34    3   32 1
    35    4   33 1
    36    5   34 1
    37    6   35 1
    38    7   36 1
    39   16   37 1
    40   16   38 1
    41   17   39 1
    42   17   40 1
    43   17   41 1
    44   18   42 1
    45   18   43 1
    46   18   44 1
    47   19   45 1
    48   19   46 1
    49   20   47 1
    50   21   48 1
    51   22   49 1
