@<TRIPOS>MOLECULE
AVX38753_0
   71    74     0     0     0
SMALL
NO_CHARGES

@<TRIPOS>ATOM
      1 C1          4.4668    2.8316   -0.5916 C.ar      1 MOL         0.0000
      2 C2          0.6478   -2.0553    5.9452 C.ar      1 MOL         0.0000
      3 C3          4.9040    2.9880    0.7237 C.ar      1 MOL         0.0000
      4 C4          3.1105    2.6444   -0.8581 C.ar      1 MOL         0.0000
      5 C5          1.2956   -3.1322    5.3401 C.ar      1 MOL         0.0000
      6 C6          0.9535   -0.7505    5.5579 C.ar      1 MOL         0.0000
      7 C7          3.9849    2.9572    1.7725 C.ar      1 MOL         0.0000
      8 C8          2.1914    2.6135    0.1907 C.ar      1 MOL         0.0000
      9 C9          2.2492   -2.9045    4.3479 C.ar      1 MOL         0.0000
     10 C10         0.9561   -3.8019    0.5730 C.ar      1 MOL         0.0000
     11 C11         0.3626   -4.7277   -0.2853 C.ar      1 MOL         0.0000
     12 C12         1.9070   -0.5228    4.5657 C.ar      1 MOL         0.0000
     13 C13         0.9739   -2.1591   -1.2009 C.ar      1 MOL         0.0000
     14 C14         2.6286    2.7699    1.5060 C.ar      1 MOL         0.0000
     15 C15         2.5549   -1.5997    3.9607 C.ar      1 MOL         0.0000
     16 C16         1.2664   -2.5212    0.1142 C.ar      1 MOL         0.0000
     17 C17         0.0825   -4.3706   -1.6046 C.ar      1 MOL         0.0000
     18 C18         0.3678   -3.0800   -2.0558 C.ar      1 MOL         0.0000
     19 C19         6.7308   -2.3937    1.0458 C.2       1 MOL         0.0000
     20 C20         5.4765   -2.8079    0.8355 C.2       1 MOL         0.0000
     21 C21         2.2076    0.8496    4.1809 C.2       1 MOL         0.0000
     22 C22         1.2955   -0.7992   -1.6801 C.2       1 MOL         0.0000
     23 C23        -1.6544   -8.4340   -5.2022 C.2       1 MOL         0.0000
     24 C24        -0.8279   -3.5378   -3.9925 C.3       1 MOL         0.0000
     25 C25        -0.4023   -4.9867   -3.7952 C.3       1 MOL         0.0000
     26 C26         1.6388    2.7363    2.6344 C.3       1 MOL         0.0000
     27 C27         3.5849   -1.3837    2.8914 C.3       1 MOL         0.0000
     28 C28         1.9102   -1.5568    1.0567 C.3       1 MOL         0.0000
     29 C29         4.3294   -1.8898    0.5695 C.3       1 MOL         0.0000
     30 C30        -0.8428   -7.3777   -4.4431 C.3       1 MOL         0.0000
     31 C31        -1.3099   -5.9395   -4.5594 C.3       1 MOL         0.0000
     32 N1          1.4452    1.3980    3.1444 N.am      1 MOL         0.0000
     33 N2          3.2198   -2.0313    1.5800 N.4       1 MOL         0.0000
     34 O1          0.4082    0.1222   -1.5546 O.co2     1 MOL         0.0000
     35 O2         -1.2600   -9.6278   -5.0988 O.co2     1 MOL         0.0000
     36 O3          3.1182    1.4768    4.7481 O.2       1 MOL         0.0000
     37 O4          2.4500   -0.5896   -2.2045 O.co2     1 MOL         0.0000
     38 O5         -2.6439   -7.9689   -5.8382 O.co2     1 MOL         0.0000
     39 O6          0.0862   -2.6592   -3.3288 O.3       1 MOL         0.0000
     40 O7         -0.4814   -5.3292   -2.4047 O.3       1 MOL         0.0000
     41 H1          5.1824    2.8570   -1.4082 H         1 MOL         0.0000
     42 H2         -0.0950   -2.2321    6.7178 H         1 MOL         0.0000
     43 H3          5.9599    3.1349    0.9313 H         1 MOL         0.0000
     44 H4          2.7696    2.5237   -1.8821 H         1 MOL         0.0000
     45 H5          1.0574   -4.1479    5.6423 H         1 MOL         0.0000
     46 H6          0.4424    0.0802    6.0379 H         1 MOL         0.0000
     47 H7          4.3347    3.0797    2.7942 H         1 MOL         0.0000
     48 H8          1.1366    2.4670   -0.0265 H         1 MOL         0.0000
     49 H9          2.7478   -3.7507    3.8826 H         1 MOL         0.0000
     50 H10         1.1776   -4.0901    1.5973 H         1 MOL         0.0000
     51 H11         0.1346   -5.7264    0.0772 H         1 MOL         0.0000
     52 H12         7.5230   -3.1113    1.2295 H         1 MOL         0.0000
     53 H13         6.9894   -1.3407    1.0379 H         1 MOL         0.0000
     54 H14         5.2715   -3.8752    0.8487 H         1 MOL         0.0000
     55 H15        -0.8228   -3.2734   -5.0552 H         1 MOL         0.0000
     56 H16        -1.8357   -3.3499   -3.6003 H         1 MOL         0.0000
     57 H17         0.6361   -5.1343   -4.1222 H         1 MOL         0.0000
     58 H18         1.9769    3.3676    3.4635 H         1 MOL         0.0000
     59 H19         0.6634    3.1164    2.3130 H         1 MOL         0.0000
     60 H20         3.7256   -0.3168    2.6870 H         1 MOL         0.0000
     61 H21         4.5550   -1.7975    3.1873 H         1 MOL         0.0000
     62 H22         2.1012   -0.5898    0.5741 H         1 MOL         0.0000
     63 H23         1.2765   -1.3676    1.9326 H         1 MOL         0.0000
     64 H24         3.8871   -2.1113   -0.4067 H         1 MOL         0.0000
     65 H25         4.6258   -0.8362    0.5869 H         1 MOL         0.0000
     66 H26         0.1771   -7.4304   -4.8445 H         1 MOL         0.0000
     67 H27        -0.7878   -7.6722   -3.3875 H         1 MOL         0.0000
     68 H28        -2.3259   -5.8118   -4.1900 H         1 MOL         0.0000
     69 H29        -1.2927   -5.6300   -5.6041 H         1 MOL         0.0000
     70 H30         0.7567    0.8198    2.6739 H         1 MOL         0.0000
     71 H31         3.1315   -3.0426    1.7721 H         1 MOL         0.0000
@<TRIPOS>BOND
     1    1    3 ar
     2    1    4 ar
     3    2    5 ar
     4    2    6 ar
     5    3    7 ar
     6    4    8 ar
     7    5    9 ar
     8    6   12 ar
     9    7   14 ar
    10    8   14 ar
    11    9   15 ar
    12   10   11 ar
    13   10   16 ar
    14   11   17 ar
    15   12   15 ar
    16   12   21 1
    17   13   16 ar
    18   13   18 ar
    19   13   22 1
    20   14   26 1
    21   15   27 1
    22   16   28 1
    23   17   18 ar
    24   17   40 1
    25   18   39 1
    26   19   20 2
    27   20   29 1
    28   21   32 am
    29   21   36 2
    30   22   34 1
    31   22   37 2
    32   23   30 1
    33   23   35 1
    34   23   38 2
    35   24   25 1
    36   24   39 1
    37   25   31 1
    38   25   40 1
    39   26   32 1
    40   27   33 1
    41   28   33 1
    42   29   33 1
    43   30   31 1
    44    1   41 1
    45    2   42 1
    46    3   43 1
    47    4   44 1
    48    5   45 1
    49    6   46 1
    50    7   47 1
    51    8   48 1
    52    9   49 1
    53   10   50 1
    54   11   51 1
    55   19   52 1
    56   19   53 1
    57   20   54 1
    58   24   55 1
    59   24   56 1
    60   25   57 1
    61   26   58 1
    62   26   59 1
    63   27   60 1
    64   27   61 1
    65   28   62 1
    66   28   63 1
    67   29   64 1
    68   29   65 1
    69   30   66 1
    70   30   67 1
    71   31   68 1
    72   31   69 1
    73   32   70 1
    74   33   71 1
