@<TRIPOS>MOLECULE
AVX38788_2
   67    70     0     0     0
SMALL
NO_CHARGES

@<TRIPOS>ATOM
      1 C1          8.1353   -4.4037    1.8622 C.ar      1 MOL         0.0000
      2 C2          7.3897   -3.7570    2.8479 C.ar      1 MOL         0.0000
      3 C3          7.4895   -5.0101    0.7847 C.ar      1 MOL         0.0000
      4 C4          5.9985   -3.7169    2.7562 C.ar      1 MOL         0.0000
      5 C5          0.7167   -5.4855    0.4318 C.ar      1 MOL         0.0000
      6 C6          0.1952   -6.5886   -0.2446 C.ar      1 MOL         0.0000
      7 C7          6.0983   -4.9700    0.6930 C.ar      1 MOL         0.0000
      8 C8          1.4254   -4.5235   -1.6702 C.ar      1 MOL         0.0000
      9 C9          5.3527   -4.3234    1.6787 C.ar      1 MOL         0.0000
     10 C10         1.3262   -4.4520   -0.2805 C.ar      1 MOL         0.0000
     11 C11         0.2817   -6.6539   -1.6355 C.ar      1 MOL         0.0000
     12 C12         0.9157   -5.6324   -2.3461 C.ar      1 MOL         0.0000
     13 C13         5.4495   -5.6120   -0.4422 C.2       1 MOL         0.0000
     14 C14         2.0797   -3.4316   -2.4198 C.2       1 MOL         0.0000
     15 C15        -3.3033   -8.7975   -3.7338 C.2       1 MOL         0.0000
     16 C16         3.1230  -10.8669   -0.8598 C.3       1 MOL         0.0000
     17 C17         2.8642   -9.6715   -1.8005 C.3       1 MOL         0.0000
     18 C18         4.3218  -10.0708   -0.3033 C.3       1 MOL         0.0000
     19 C19         0.8247   -6.9577   -4.2508 C.3       1 MOL         0.0000
     20 C20         3.5858   -8.7931   -0.7572 C.3       1 MOL         0.0000
     21 C21        -0.4427   -7.5550   -3.6540 C.3       1 MOL         0.0000
     22 C22         3.9156   -1.9057    0.8127 C.3       1 MOL         0.0000
     23 C23         3.8553   -4.2655    1.6054 C.3       1 MOL         0.0000
     24 C24         1.8674   -3.2812    0.4739 C.3       1 MOL         0.0000
     25 C25        -1.9730   -9.5522   -3.6255 C.3       1 MOL         0.0000
     26 C26         4.4661   -7.7367   -1.3331 C.3       1 MOL         0.0000
     27 C27        -0.7635   -8.9069   -4.2744 C.3       1 MOL         0.0000
     28 N1          5.0943   -6.9564   -0.2913 N.am      1 MOL         0.0000
     29 N2          3.3517   -3.2839    0.5781 N.4       1 MOL         0.0000
     30 O1          1.3585   -2.4499   -2.8299 O.co2     1 MOL         0.0000
     31 O2         -4.1205   -8.9592   -2.7865 O.co2     1 MOL         0.0000
     32 O3          5.2504   -4.9795   -1.4932 O.2       1 MOL         0.0000
     33 O4          3.3450   -3.5051   -2.6335 O.co2     1 MOL         0.0000
     34 O5         -3.4112   -8.0838   -4.7725 O.co2     1 MOL         0.0000
     35 O6          1.0607   -5.6544   -3.7082 O.3       1 MOL         0.0000
     36 O7         -0.2674   -7.7516   -2.2443 O.3       1 MOL         0.0000
     37 H1          9.2188   -4.4351    1.9330 H         1 MOL         0.0000
     38 H2          7.8931   -3.2852    3.6868 H         1 MOL         0.0000
     39 H3          8.0818   -5.5118    0.0236 H         1 MOL         0.0000
     40 H4          5.4270   -3.2101    3.5293 H         1 MOL         0.0000
     41 H5          0.6391   -5.4386    1.5149 H         1 MOL         0.0000
     42 H6         -0.2868   -7.3841    0.3171 H         1 MOL         0.0000
     43 H7          2.3251  -11.0414   -0.1290 H         1 MOL         0.0000
     44 H8          3.3677  -11.8124   -1.3503 H         1 MOL         0.0000
     45 H9          3.3935   -9.7432   -2.7582 H         1 MOL         0.0000
     46 H10         1.8138   -9.4392   -1.9949 H         1 MOL         0.0000
     47 H11         4.5050  -10.1764    0.7694 H         1 MOL         0.0000
     48 H12         5.2591  -10.2542   -0.8418 H         1 MOL         0.0000
     49 H13         1.7052   -7.5811   -4.0494 H         1 MOL         0.0000
     50 H14         0.7272   -6.8477   -5.3361 H         1 MOL         0.0000
     51 H15         2.9210   -8.3691    0.0034 H         1 MOL         0.0000
     52 H16        -1.2958   -6.8782   -3.7989 H         1 MOL         0.0000
     53 H17         3.5333   -1.5470    1.7701 H         1 MOL         0.0000
     54 H18         5.0040   -1.9887    0.8308 H         1 MOL         0.0000
     55 H19         3.5844   -1.2652   -0.0069 H         1 MOL         0.0000
     56 H20         3.4338   -5.2413    1.3411 H         1 MOL         0.0000
     57 H21         3.4236   -3.9647    2.5661 H         1 MOL         0.0000
     58 H22         1.5920   -2.3326   -0.0043 H         1 MOL         0.0000
     59 H23         1.4845   -3.2542    1.5022 H         1 MOL         0.0000
     60 H24        -2.1332  -10.5234   -4.1105 H         1 MOL         0.0000
     61 H25        -1.7707   -9.7521   -2.5658 H         1 MOL         0.0000
     62 H26         3.8850   -7.0523   -1.9584 H         1 MOL         0.0000
     63 H27         5.2596   -8.1816   -1.9407 H         1 MOL         0.0000
     64 H28        -0.9044   -8.7661   -5.3447 H         1 MOL         0.0000
     65 H29         0.1118   -9.5406   -4.1333 H         1 MOL         0.0000
     66 H30         5.3374   -7.4418    0.5660 H         1 MOL         0.0000
     67 H31         3.7279   -3.5989   -0.3311 H         1 MOL         0.0000
@<TRIPOS>BOND
     1    1    2 ar
     2    1    3 ar
     3    2    4 ar
     4    3    7 ar
     5    4    9 ar
     6    5    6 ar
     7    5   10 ar
     8    6   11 ar
     9    7    9 ar
    10    7   13 1
    11    8   10 ar
    12    8   12 ar
    13    8   14 1
    14    9   23 1
    15   10   24 1
    16   11   12 ar
    17   11   36 1
    18   12   35 1
    19   13   28 am
    20   13   32 2
    21   14   30 1
    22   14   33 2
    23   15   25 1
    24   15   31 1
    25   15   34 2
    26   16   17 1
    27   16   18 1
    28   17   20 1
    29   18   20 1
    30   19   21 1
    31   19   35 1
    32   20   26 1
    33   21   27 1
    34   21   36 1
    35   22   29 1
    36   23   29 1
    37   24   29 1
    38   25   27 1
    39   26   28 1
    40    1   37 1
    41    2   38 1
    42    3   39 1
    43    4   40 1
    44    5   41 1
    45    6   42 1
    46   16   43 1
    47   16   44 1
    48   17   45 1
    49   17   46 1
    50   18   47 1
    51   18   48 1
    52   19   49 1
    53   19   50 1
    54   20   51 1
    55   21   52 1
    56   22   53 1
    57   22   54 1
    58   22   55 1
    59   23   56 1
    60   23   57 1
    61   24   58 1
    62   24   59 1
    63   25   60 1
    64   25   61 1
    65   26   62 1
    66   26   63 1
    67   27   64 1
    68   27   65 1
    69   28   66 1
    70   29   67 1
