@<TRIPOS>MOLECULE
AVX38783_1
   68    71     0     0     0
SMALL
NO_CHARGES

@<TRIPOS>ATOM
      1 C1          8.0873   -2.3334    2.9534 C.ar      1 MOL         0.0000
      2 C2          7.5001   -2.8576    1.8020 C.ar      1 MOL         0.0000
      3 C3          0.6007    1.6215    4.5731 C.2       1 MOL         0.0000
      4 C4          7.4263   -1.3479    3.6868 C.ar      1 MOL         0.0000
      5 C5          6.2519   -2.3962    1.3836 C.ar      1 MOL         0.0000
      6 C6          2.4921   -1.6913   -1.3574 C.ar      1 MOL         0.0000
      7 C7          2.6028   -1.1296   -2.6296 C.ar      1 MOL         0.0000
      8 C8          1.8895    2.0243    4.9973 C.2       1 MOL         0.0000
      9 C9          0.5559    0.2559    4.7315 C.2       1 MOL         0.0000
     10 C10         6.1782   -0.8866    3.2684 C.ar      1 MOL         0.0000
     11 C11         1.6214    0.3967   -0.5042 C.ar      1 MOL         0.0000
     12 C12         5.5910   -1.4107    2.1169 C.ar      1 MOL         0.0000
     13 C13         2.0073   -0.9275   -0.2951 C.ar      1 MOL         0.0000
     14 C14         2.2301    0.1988   -2.8363 C.ar      1 MOL         0.0000
     15 C15         1.7189    0.9548   -1.7791 C.ar      1 MOL         0.0000
     16 C16         2.5402    0.8762    5.3850 C.2       1 MOL         0.0000
     17 C17         1.0462   -4.0127    3.6032 C.2       1 MOL         0.0000
     18 C18         2.1447   -3.8981    2.8487 C.2       1 MOL         0.0000
     19 C19         5.5103    0.1436    4.0523 C.2       1 MOL         0.0000
     20 C20         1.0998    1.1992    0.6211 C.2       1 MOL         0.0000
     21 C21         3.4068    2.5918   -7.8721 C.2       1 MOL         0.0000
     22 C22         1.1203    2.6023   -3.3014 C.3       1 MOL         0.0000
     23 C23         2.3098    2.1322   -4.1283 C.3       1 MOL         0.0000
     24 C24         4.2499   -0.9325    1.6439 C.3       1 MOL         0.0000
     25 C25         1.9102   -1.5569    1.0567 C.3       1 MOL         0.0000
     26 C26         3.9146    0.6079    5.9267 C.3       1 MOL         0.0000
     27 C27         3.0773   -2.7334    2.9064 C.3       1 MOL         0.0000
     28 C28         3.3993    2.1785   -6.3957 C.3       1 MOL         0.0000
     29 C29         2.1789    2.5634   -5.5817 C.3       1 MOL         0.0000
     30 N1          4.6645   -0.2902    5.0783 N.am      1 MOL         0.0000
     31 N2          3.2198   -2.0313    1.5800 N.4       1 MOL         0.0000
     32 O1         -0.1652    1.1897    0.8481 O.co2     1 MOL         0.0000
     33 O2          4.4249    2.2665   -8.5422 O.co2     1 MOL         0.0000
     34 O3          5.6835    1.3456    3.7890 O.2       1 MOL         0.0000
     35 O4          1.9310    1.8764    1.3299 O.co2     1 MOL         0.0000
     36 O5          2.3659    3.2073   -8.2433 O.co2     1 MOL         0.0000
     37 O6          1.7341   -0.2062    5.2261 O.3       1 MOL         0.0000
     38 O7          1.3050    2.2525   -1.9261 O.3       1 MOL         0.0000
     39 O8          2.3811    0.6999   -4.1024 O.3       1 MOL         0.0000
     40 H1          9.0592   -2.6924    3.2798 H         1 MOL         0.0000
     41 H2          8.0153   -3.6247    1.2312 H         1 MOL         0.0000
     42 H3         -0.1957    2.2480    4.1983 H         1 MOL         0.0000
     43 H4          7.8950   -0.9467    4.5817 H         1 MOL         0.0000
     44 H5          5.8030   -2.8117    0.4853 H         1 MOL         0.0000
     45 H6          2.7912   -2.7247   -1.2030 H         1 MOL         0.0000
     46 H7          2.9919   -1.7283   -3.4486 H         1 MOL         0.0000
     47 H8          2.2911    3.0275    5.0165 H         1 MOL         0.0000
     48 H9         -0.2003   -0.4932    4.5481 H         1 MOL         0.0000
     49 H10         0.4101   -4.8870    3.5183 H         1 MOL         0.0000
     50 H11         0.7636   -3.2445    4.3143 H         1 MOL         0.0000
     51 H12         2.3859   -4.6993    2.1550 H         1 MOL         0.0000
     52 H13         1.0196    3.6916   -3.3514 H         1 MOL         0.0000
     53 H14         0.1787    2.1576   -3.6486 H         1 MOL         0.0000
     54 H15         3.2489    2.5260   -3.7162 H         1 MOL         0.0000
     55 H16         3.8469   -0.1619    2.3097 H         1 MOL         0.0000
     56 H17         4.3151   -0.5036    0.6381 H         1 MOL         0.0000
     57 H18         1.5158   -0.8528    1.8005 H         1 MOL         0.0000
     58 H19         1.2457   -2.4303    1.0463 H         1 MOL         0.0000
     59 H20         4.4829    1.5402    6.0166 H         1 MOL         0.0000
     60 H21         3.8632    0.1608    6.9250 H         1 MOL         0.0000
     61 H22         4.0809   -3.0669    3.1877 H         1 MOL         0.0000
     62 H23         2.7498   -1.9720    3.6213 H         1 MOL         0.0000
     63 H24         4.2711    2.6637   -5.9389 H         1 MOL         0.0000
     64 H25         3.5666    1.0958   -6.3357 H         1 MOL         0.0000
     65 H26         1.2675    2.1264   -5.9859 H         1 MOL         0.0000
     66 H27         2.0604    3.6466   -5.5853 H         1 MOL         0.0000
     67 H28         4.5106   -1.2847    5.2089 H         1 MOL         0.0000
     68 H29         3.5872   -2.7334    0.9171 H         1 MOL         0.0000
@<TRIPOS>BOND
     1    1    2 ar
     2    1    4 ar
     3    2    5 ar
     4    3    8 1
     5    3    9 2
     6    4   10 ar
     7    5   12 ar
     8    6    7 ar
     9    6   13 ar
    10    7   14 ar
    11    8   16 2
    12    9   37 1
    13   10   12 ar
    14   10   19 1
    15   11   13 ar
    16   11   15 ar
    17   11   20 1
    18   12   24 1
    19   13   25 1
    20   14   15 ar
    21   14   39 1
    22   15   38 1
    23   16   26 1
    24   16   37 1
    25   17   18 2
    26   18   27 1
    27   19   30 am
    28   19   34 2
    29   20   32 1
    30   20   35 2
    31   21   28 1
    32   21   33 1
    33   21   36 2
    34   22   23 1
    35   22   38 1
    36   23   29 1
    37   23   39 1
    38   24   31 1
    39   25   31 1
    40   26   30 1
    41   27   31 1
    42   28   29 1
    43    1   40 1
    44    2   41 1
    45    3   42 1
    46    4   43 1
    47    5   44 1
    48    6   45 1
    49    7   46 1
    50    8   47 1
    51    9   48 1
    52   17   49 1
    53   17   50 1
    54   18   51 1
    55   22   52 1
    56   22   53 1
    57   23   54 1
    58   24   55 1
    59   24   56 1
    60   25   57 1
    61   25   58 1
    62   26   59 1
    63   26   60 1
    64   27   61 1
    65   27   62 1
    66   28   63 1
    67   28   64 1
    68   29   65 1
    69   29   66 1
    70   30   67 1
    71   31   68 1
