@<TRIPOS>MOLECULE
AVX38708_0
   56    59     0     0     0
SMALL
NO_CHARGES

@<TRIPOS>ATOM
      1 C1          1.4051    5.4140    5.2090 C.ar      1 MOL         0.0000
      2 C2          6.1697   -0.9195    1.3540 C.ar      1 MOL         0.0000
      3 C3          2.0526    4.4192    5.9416 C.ar      1 MOL         0.0000
      4 C4          0.7319    5.0870    4.0319 C.ar      1 MOL         0.0000
      5 C5          6.1217   -0.6543   -0.0145 C.ar      1 MOL         0.0000
      6 C6          5.0231   -0.7694    2.1342 C.ar      1 MOL         0.0000
      7 C7          2.0271    3.0973    5.4970 C.ar      1 MOL         0.0000
      8 C8          0.7064    3.7651    3.5873 C.ar      1 MOL         0.0000
      9 C9          4.9272   -0.2389   -0.6030 C.ar      1 MOL         0.0000
     10 C10        -0.7386    1.8357   -0.3745 C.ar      1 MOL         0.0000
     11 C11        -1.5465    2.5504    0.5131 C.ar      1 MOL         0.0000
     12 C12         3.8286   -0.3539    1.5458 C.ar      1 MOL         0.0000
     13 C13        -1.3560   -0.2660    0.6885 C.ar      1 MOL         0.0000
     14 C14         1.3540    2.7703    4.3198 C.ar      1 MOL         0.0000
     15 C15         3.7806   -0.0887    0.1772 C.ar      1 MOL         0.0000
     16 C16        -0.6439    0.4356   -0.2874 C.ar      1 MOL         0.0000
     17 C17        -2.2392    1.8338    1.4673 C.ar      1 MOL         0.0000
     18 C18        -2.1466    0.4634    1.5526 C.ar      1 MOL         0.0000
     19 C19         2.6465   -0.2045    2.3837 C.2       1 MOL         0.0000
     20 C20        -1.2748   -1.7312    0.8000 C.2       1 MOL         0.0000
     21 C21        -3.4899    1.1598    3.0993 C.3       1 MOL         0.0000
     22 C22         2.1117   -1.9125   -1.4187 C.3       1 MOL         0.0000
     23 C23         1.3263    1.3477    3.8406 C.3       1 MOL         0.0000
     24 C24         2.5096    0.3600   -0.4816 C.3       1 MOL         0.0000
     25 C25         0.2337   -0.2846   -1.2599 C.3       1 MOL         0.0000
     26 N1          2.4384    1.0495    2.9670 N.am      1 MOL         0.0000
     27 N2          1.5115   -0.7556   -0.6610 N.4       1 MOL         0.0000
     28 O1         -2.1128   -2.4507    0.1374 O.co2     1 MOL         0.0000
     29 O2          1.8843   -1.1674    2.5735 O.2       1 MOL         0.0000
     30 O3         -0.3687   -2.2461    1.5568 O.co2     1 MOL         0.0000
     31 O4         -3.0703    2.3554    2.4103 O.3       1 MOL         0.0000
     32 O5         -2.9079   -0.0446    2.5598 O.3       1 MOL         0.0000
     33 H1          1.4240    6.4430    5.5561 H         1 MOL         0.0000
     34 H2          7.0996   -1.2433    1.8128 H         1 MOL         0.0000
     35 H3          2.5759    4.6735    6.8587 H         1 MOL         0.0000
     36 H4          0.2268    5.8611    3.4619 H         1 MOL         0.0000
     37 H5          7.0148   -0.7712   -0.6214 H         1 MOL         0.0000
     38 H6          5.0738   -0.9781    3.1998 H         1 MOL         0.0000
     39 H7          2.5346    2.3288    6.0741 H         1 MOL         0.0000
     40 H8          0.1795    3.5197    2.6690 H         1 MOL         0.0000
     41 H9          4.9005   -0.0354   -1.6702 H         1 MOL         0.0000
     42 H10        -0.1813    2.3742   -1.1373 H         1 MOL         0.0000
     43 H11        -1.6224    3.6299    0.4494 H         1 MOL         0.0000
     44 H12        -3.2054    1.2447    4.1544 H         1 MOL         0.0000
     45 H13        -4.5813    1.0819    3.0341 H         1 MOL         0.0000
     46 H14         2.3450   -1.5660   -2.4272 H         1 MOL         0.0000
     47 H15         3.0154   -2.2242   -0.8917 H         1 MOL         0.0000
     48 H16         1.3733   -2.7162   -1.4410 H         1 MOL         0.0000
     49 H17         1.3672    0.6541    4.6875 H         1 MOL         0.0000
     50 H18         0.4029    1.1360    3.2912 H         1 MOL         0.0000
     51 H19         2.0107    1.1365    0.1082 H         1 MOL         0.0000
     52 H20         2.7042    0.7712   -1.4779 H         1 MOL         0.0000
     53 H21        -0.2640   -1.1732   -1.6680 H         1 MOL         0.0000
     54 H22         0.5059    0.3582   -2.1065 H         1 MOL         0.0000
     55 H23         3.1265    1.7825    2.8292 H         1 MOL         0.0000
     56 H24         1.3007   -1.1094    0.2866 H         1 MOL         0.0000
@<TRIPOS>BOND
     1    1    3 ar
     2    1    4 ar
     3    2    5 ar
     4    2    6 ar
     5    3    7 ar
     6    4    8 ar
     7    5    9 ar
     8    6   12 ar
     9    7   14 ar
    10    8   14 ar
    11    9   15 ar
    12   10   11 ar
    13   10   16 ar
    14   11   17 ar
    15   12   15 ar
    16   12   19 1
    17   13   16 ar
    18   13   18 ar
    19   13   20 1
    20   14   23 1
    21   15   24 1
    22   16   25 1
    23   17   18 ar
    24   17   31 1
    25   18   32 1
    26   19   26 am
    27   19   29 2
    28   20   28 1
    29   20   30 2
    30   21   31 1
    31   21   32 1
    32   22   27 1
    33   23   26 1
    34   24   27 1
    35   25   27 1
    36    1   33 1
    37    2   34 1
    38    3   35 1
    39    4   36 1
    40    5   37 1
    41    6   38 1
    42    7   39 1
    43    8   40 1
    44    9   41 1
    45   10   42 1
    46   11   43 1
    47   21   44 1
    48   21   45 1
    49   22   46 1
    50   22   47 1
    51   22   48 1
    52   23   49 1
    53   23   50 1
    54   24   51 1
    55   24   52 1
    56   25   53 1
    57   25   54 1
    58   26   55 1
    59   27   56 1
