@<TRIPOS>MOLECULE
AVX38783_3
   68    71     0     0     0
SMALL
NO_CHARGES

@<TRIPOS>ATOM
      1 C1          1.0838   -2.1280   -8.1572 C.ar      1 MOL         0.0000
      2 C2          0.3597   -1.0093   -7.7452 C.ar      1 MOL         0.0000
      3 C3          0.8609   -4.8713    0.0122 C.2       1 MOL         0.0000
      4 C4          1.6095   -3.0063   -7.2096 C.ar      1 MOL         0.0000
      5 C5          0.1615   -0.7687   -6.3856 C.ar      1 MOL         0.0000
      6 C6         -1.0082    1.4783   -2.4195 C.ar      1 MOL         0.0000
      7 C7         -0.4535    2.7075   -2.0626 C.ar      1 MOL         0.0000
      8 C8          1.8332   -5.1829   -0.9679 C.2       1 MOL         0.0000
      9 C9         -0.3560   -4.9231   -0.6270 C.2       1 MOL         0.0000
     10 C10         1.4113   -2.7657   -5.8500 C.ar      1 MOL         0.0000
     11 C11         0.3802    0.3685   -0.7803 C.ar      1 MOL         0.0000
     12 C12         0.6872   -1.6470   -5.4380 C.ar      1 MOL         0.0000
     13 C13        -0.5958    0.3111   -1.7756 C.ar      1 MOL         0.0000
     14 C14         0.5124    2.7672   -1.0576 C.ar      1 MOL         0.0000
     15 C15         0.9447    1.5958   -0.4320 C.ar      1 MOL         0.0000
     16 C16         1.1413   -5.4032   -2.1361 C.2       1 MOL         0.0000
     17 C17        -3.8245   -3.4076   -2.9524 C.2       1 MOL         0.0000
     18 C18        -3.1763   -2.5490   -3.7471 C.2       1 MOL         0.0000
     19 C19         1.9718   -3.6985   -4.8817 C.2       1 MOL         0.0000
     20 C20         0.8207   -0.8707   -0.1075 C.2       1 MOL         0.0000
     21 C21         0.4196    6.6550    1.5358 C.2       1 MOL         0.0000
     22 C22         2.6512    2.8105    0.5703 C.3       1 MOL         0.0000
     23 C23         1.7019    4.0000    0.5160 C.3       1 MOL         0.0000
     24 C24         0.4594   -1.3638   -3.9824 C.3       1 MOL         0.0000
     25 C25        -1.2157   -0.9880   -2.1764 C.3       1 MOL         0.0000
     26 C26         1.5675   -5.7676   -3.5288 C.3       1 MOL         0.0000
     27 C27        -1.7059   -2.5979   -4.0028 C.3       1 MOL         0.0000
     28 C28         1.5312    6.5104    0.4898 C.3       1 MOL         0.0000
     29 C29         2.4559    5.3166    0.6321 C.3       1 MOL         0.0000
     30 N1          1.1633   -4.7726   -4.4960 N.am      1 MOL         0.0000
     31 N2         -1.0008   -1.3248   -3.6097 N.4       1 MOL         0.0000
     32 O1          0.2001   -1.2478    0.9530 O.co2     1 MOL         0.0000
     33 O2         -0.6433    7.2163    1.1532 O.co2     1 MOL         0.0000
     34 O3          3.1102   -3.5156   -4.4182 O.2       1 MOL         0.0000
     35 O4          1.8079   -1.5240   -0.6080 O.co2     1 MOL         0.0000
     36 O5          0.7083    6.1726    2.6689 O.co2     1 MOL         0.0000
     37 O6         -0.1938   -5.2468   -1.9368 O.3       1 MOL         0.0000
     38 O7          1.9120    1.5853    0.5381 O.3       1 MOL         0.0000
     39 O8          1.0041    4.0051   -0.7369 O.3       1 MOL         0.0000
     40 H1          1.2383   -2.3159   -9.2159 H         1 MOL         0.0000
     41 H2         -0.0492   -0.3256   -8.4835 H         1 MOL         0.0000
     42 H3          1.0262   -4.6377    1.0539 H         1 MOL         0.0000
     43 H4          2.1729   -3.8739   -7.5434 H         1 MOL         0.0000
     44 H5         -0.4046    0.1056   -6.0753 H         1 MOL         0.0000
     45 H6         -1.7653    1.4410   -3.1985 H         1 MOL         0.0000
     46 H7         -0.7878    3.6127   -2.5621 H         1 MOL         0.0000
     47 H8          2.9044   -5.2388   -0.8360 H         1 MOL         0.0000
     48 H9         -1.3754   -4.7639   -0.3075 H         1 MOL         0.0000
     49 H10        -4.8964   -3.3227   -2.8102 H         1 MOL         0.0000
     50 H11        -3.3037   -4.2049   -2.4340 H         1 MOL         0.0000
     51 H12        -3.7464   -1.7708   -4.2478 H         1 MOL         0.0000
     52 H13         3.3569    2.8112   -0.2703 H         1 MOL         0.0000
     53 H14         3.2301    2.8192    1.5000 H         1 MOL         0.0000
     54 H15         0.9557    3.9377    1.3198 H         1 MOL         0.0000
     55 H16         0.9244   -2.1297   -3.3525 H         1 MOL         0.0000
     56 H17         0.8829   -0.3947   -3.6969 H         1 MOL         0.0000
     57 H18        -0.8059   -1.8249   -1.5965 H         1 MOL         0.0000
     58 H19        -2.3019   -0.9801   -2.0193 H         1 MOL         0.0000
     59 H20         2.6568   -5.8696   -3.5850 H         1 MOL         0.0000
     60 H21         1.1349   -6.7263   -3.8340 H         1 MOL         0.0000
     61 H22        -1.5129   -2.7398   -5.0705 H         1 MOL         0.0000
     62 H23        -1.2130   -3.4034   -3.4494 H         1 MOL         0.0000
     63 H24         2.1434    7.4176    0.5681 H         1 MOL         0.0000
     64 H25         1.0743    6.5166   -0.5078 H         1 MOL         0.0000
     65 H26         2.9842    5.3241    1.5840 H         1 MOL         0.0000
     66 H27         3.2008    5.3310   -0.1633 H         1 MOL         0.0000
     67 H28         0.2178   -4.8387   -4.8585 H         1 MOL         0.0000
     68 H29        -1.4233   -0.5712   -4.1762 H         1 MOL         0.0000
@<TRIPOS>BOND
     1    1    2 ar
     2    1    4 ar
     3    2    5 ar
     4    3    8 1
     5    3    9 2
     6    4   10 ar
     7    5   12 ar
     8    6    7 ar
     9    6   13 ar
    10    7   14 ar
    11    8   16 2
    12    9   37 1
    13   10   12 ar
    14   10   19 1
    15   11   13 ar
    16   11   15 ar
    17   11   20 1
    18   12   24 1
    19   13   25 1
    20   14   15 ar
    21   14   39 1
    22   15   38 1
    23   16   26 1
    24   16   37 1
    25   17   18 2
    26   18   27 1
    27   19   30 am
    28   19   34 2
    29   20   32 1
    30   20   35 2
    31   21   28 1
    32   21   33 1
    33   21   36 2
    34   22   23 1
    35   22   38 1
    36   23   29 1
    37   23   39 1
    38   24   31 1
    39   25   31 1
    40   26   30 1
    41   27   31 1
    42   28   29 1
    43    1   40 1
    44    2   41 1
    45    3   42 1
    46    4   43 1
    47    5   44 1
    48    6   45 1
    49    7   46 1
    50    8   47 1
    51    9   48 1
    52   17   49 1
    53   17   50 1
    54   18   51 1
    55   22   52 1
    56   22   53 1
    57   23   54 1
    58   24   55 1
    59   24   56 1
    60   25   57 1
    61   25   58 1
    62   26   59 1
    63   26   60 1
    64   27   61 1
    65   27   62 1
    66   28   63 1
    67   28   64 1
    68   29   65 1
    69   29   66 1
    70   30   67 1
    71   31   68 1
