@<TRIPOS>MOLECULE
AVX38779_0
   70    72     0     0     0
SMALL
NO_CHARGES

@<TRIPOS>ATOM
      1 C1          4.9869    0.8849   -2.1715 C.ar      1 MOL         0.0000
      2 C2          5.4925   -0.3829   -1.8844 C.ar      1 MOL         0.0000
      3 C3          4.2369    1.5697   -1.2153 C.ar      1 MOL         0.0000
      4 C4          5.2481   -0.9661   -0.6411 C.ar      1 MOL         0.0000
      5 C5         -0.1342   -2.7316    1.8471 C.ar      1 MOL         0.0000
      6 C6         -1.0876   -3.7451    1.7464 C.ar      1 MOL         0.0000
      7 C7          3.9924    0.9865    0.0280 C.ar      1 MOL         0.0000
      8 C8          0.9782   -3.5729   -0.1279 C.ar      1 MOL         0.0000
      9 C9          4.4980   -0.2814    0.3151 C.ar      1 MOL         0.0000
     10 C10         0.9003   -2.6490    0.9145 C.ar      1 MOL         0.0000
     11 C11        -1.0023   -4.6776    0.7122 C.ar      1 MOL         0.0000
     12 C12         0.0173   -4.5783   -0.2372 C.ar      1 MOL         0.0000
     13 C13         4.9356   -2.8887    4.5707 C.2       1 MOL         0.0000
     14 C14         4.3721   -3.2715    3.4197 C.2       1 MOL         0.0000
     15 C15         3.2056    1.7231    1.0079 C.2       1 MOL         0.0000
     16 C16         2.0697   -3.4764   -1.1187 C.2       1 MOL         0.0000
     17 C17        -4.4983   -9.1761    0.8235 C.2       1 MOL         0.0000
     18 C18        -1.0650   -6.1927   -1.5070 C.3       1 MOL         0.0000
     19 C19        -1.5828   -6.7443   -0.1852 C.3       1 MOL         0.0000
     20 C20         0.7428    4.6385   -0.2624 C.3       1 MOL         0.0000
     21 C21         0.2474    1.8604    2.4111 C.3       1 MOL         0.0000
     22 C22         4.2499   -0.9325    1.6439 C.3       1 MOL         0.0000
     23 C23         1.9102   -1.5569    1.0567 C.3       1 MOL         0.0000
     24 C24         3.0773   -2.7334    2.9064 C.3       1 MOL         0.0000
     25 C25        -3.2848   -8.2425    0.9052 C.3       1 MOL         0.0000
     26 C26        -2.8130   -7.6156   -0.3927 C.3       1 MOL         0.0000
     27 C27         0.0305    3.6673    0.6702 C.3       1 MOL         0.0000
     28 C28         1.0046    2.8157    1.4945 C.3       1 MOL         0.0000
     29 N1          1.8999    2.0665    0.6425 N.am      1 MOL         0.0000
     30 N2          3.2198   -2.0313    1.5800 N.4       1 MOL         0.0000
     31 O1          1.8813   -2.7660   -2.1731 O.co2     1 MOL         0.0000
     32 O2         -4.8850   -9.6921    1.9078 O.co2     1 MOL         0.0000
     33 O3          3.7007    2.0388    2.1031 O.2       1 MOL         0.0000
     34 O4          3.1659   -4.1068   -0.8885 O.co2     1 MOL         0.0000
     35 O5         -4.9764   -9.3039   -0.3405 O.co2     1 MOL         0.0000
     36 O6          0.1349   -5.4426   -1.2936 O.3       1 MOL         0.0000
     37 O7         -1.9553   -5.6612    0.6781 O.3       1 MOL         0.0000
     38 H1          5.1771    1.3396   -3.1395 H         1 MOL         0.0000
     39 H2          6.0762   -0.9157   -2.6294 H         1 MOL         0.0000
     40 H3          3.8475    2.5567   -1.4516 H         1 MOL         0.0000
     41 H4          5.6470   -1.9542   -0.4274 H         1 MOL         0.0000
     42 H5         -0.2036   -2.0133    2.6598 H         1 MOL         0.0000
     43 H6         -1.8833   -3.8086    2.4835 H         1 MOL         0.0000
     44 H7          5.8816   -3.3140    4.8876 H         1 MOL         0.0000
     45 H8          4.4692   -2.1497    5.2126 H         1 MOL         0.0000
     46 H9          4.8838   -4.0120    2.8103 H         1 MOL         0.0000
     47 H10        -0.8234   -7.0066   -2.1988 H         1 MOL         0.0000
     48 H11        -1.8000   -5.5393   -1.9944 H         1 MOL         0.0000
     49 H12        -0.8046   -7.3303    0.3225 H         1 MOL         0.0000
     50 H13         1.3999    4.1126   -0.9618 H         1 MOL         0.0000
     51 H14         0.0105    5.2013   -0.8499 H         1 MOL         0.0000
     52 H15         1.3451    5.3556    0.3044 H         1 MOL         0.0000
     53 H16        -0.3944    1.1879    1.8328 H         1 MOL         0.0000
     54 H17         0.9366    1.2500    3.0055 H         1 MOL         0.0000
     55 H18        -0.3876    2.4149    3.1109 H         1 MOL         0.0000
     56 H19         5.1658   -1.3828    2.0413 H         1 MOL         0.0000
     57 H20         3.8891   -0.2054    2.3794 H         1 MOL         0.0000
     58 H21         2.1180   -1.0736    0.0935 H         1 MOL         0.0000
     59 H22         1.5642   -0.7774    1.7476 H         1 MOL         0.0000
     60 H23         2.6725   -1.9941    3.6043 H         1 MOL         0.0000
     61 H24         2.3292   -3.5185    2.7575 H         1 MOL         0.0000
     62 H25        -2.4602   -8.8483    1.3017 H         1 MOL         0.0000
     63 H26        -3.4948   -7.4616    1.6469 H         1 MOL         0.0000
     64 H27        -3.5881   -7.0062   -0.8541 H         1 MOL         0.0000
     65 H28        -2.5368   -8.3970   -1.1001 H         1 MOL         0.0000
     66 H29        -0.6111    4.2460    1.3458 H         1 MOL         0.0000
     67 H30        -0.6279    3.0220    0.0754 H         1 MOL         0.0000
     68 H31         1.6337    3.4701    2.1090 H         1 MOL         0.0000
     69 H32         1.5678    1.8383   -0.2888 H         1 MOL         0.0000
     70 H33         3.5872   -2.7334    0.9171 H         1 MOL         0.0000
@<TRIPOS>BOND
     1    1    2 ar
     2    1    3 ar
     3    2    4 ar
     4    3    7 ar
     5    4    9 ar
     6    5    6 ar
     7    5   10 ar
     8    6   11 ar
     9    7    9 ar
    10    7   15 1
    11    8   10 ar
    12    8   12 ar
    13    8   16 1
    14    9   22 1
    15   10   23 1
    16   11   12 ar
    17   11   37 1
    18   12   36 1
    19   13   14 2
    20   14   24 1
    21   15   29 am
    22   15   33 2
    23   16   31 1
    24   16   34 2
    25   17   25 1
    26   17   32 1
    27   17   35 2
    28   18   19 1
    29   18   36 1
    30   19   26 1
    31   19   37 1
    32   20   27 1
    33   21   28 1
    34   22   30 1
    35   23   30 1
    36   24   30 1
    37   25   26 1
    38   27   28 1
    39   28   29 1
    40    1   38 1
    41    2   39 1
    42    3   40 1
    43    4   41 1
    44    5   42 1
    45    6   43 1
    46   13   44 1
    47   13   45 1
    48   14   46 1
    49   18   47 1
    50   18   48 1
    51   19   49 1
    52   20   50 1
    53   20   51 1
    54   20   52 1
    55   21   53 1
    56   21   54 1
    57   21   55 1
    58   22   56 1
    59   22   57 1
    60   23   58 1
    61   23   59 1
    62   24   60 1
    63   24   61 1
    64   25   62 1
    65   25   63 1
    66   26   64 1
    67   26   65 1
    68   27   66 1
    69   27   67 1
    70   28   68 1
    71   29   69 1
    72   30   70 1
