@<TRIPOS>MOLECULE
AVX38784_6
   66    68     0     0     0
SMALL
NO_CHARGES

@<TRIPOS>ATOM
      1 C1          0.8041   -1.4712   -8.3538 C.ar      1 MOL         0.0000
      2 C2          0.0708   -0.3296   -8.0304 C.ar      1 MOL         0.0000
      3 C3          1.2986   -2.2927   -7.3407 C.ar      1 MOL         0.0000
      4 C4         -0.1679   -0.0093   -6.6939 C.ar      1 MOL         0.0000
      5 C5          0.8019   -0.6244   -0.7686 C.ar      1 MOL         0.0000
      6 C6          1.8108   -1.0844    0.0779 C.ar      1 MOL         0.0000
      7 C7          1.0600   -1.9724   -6.0042 C.ar      1 MOL         0.0000
      8 C8         -0.0766   -2.8695   -0.9522 C.ar      1 MOL         0.0000
      9 C9          0.3267   -0.8308   -5.6808 C.ar      1 MOL         0.0000
     10 C10        -0.1436   -1.5148   -1.2787 C.ar      1 MOL         0.0000
     11 C11         1.8698   -2.4366    0.4160 C.ar      1 MOL         0.0000
     12 C12         0.9398   -3.3323   -0.1161 C.ar      1 MOL         0.0000
     13 C13         1.5885   -2.8471   -4.9662 C.2       1 MOL         0.0000
     14 C14        -1.0741   -3.8105   -1.5017 C.2       1 MOL         0.0000
     15 C15         3.4548   -3.3234    4.7231 C.2       1 MOL         0.0000
     16 C16         2.2139   -5.0857    0.7172 C.3       1 MOL         0.0000
     17 C17         2.6327   -4.1252    1.8223 C.3       1 MOL         0.0000
     18 C18         5.0247   -5.3712   -3.0627 C.3       1 MOL         0.0000
     19 C19         4.4337   -2.4444   -2.6314 C.3       1 MOL         0.0000
     20 C20        -2.2816   -1.3075   -4.4044 C.3       1 MOL         0.0000
     21 C21         0.0557   -0.4623   -4.2519 C.3       1 MOL         0.0000
     22 C22        -1.2157   -0.9880   -2.1764 C.3       1 MOL         0.0000
     23 C23         4.3923   -3.5886    3.5391 C.3       1 MOL         0.0000
     24 C24         3.9172   -4.5833    2.4974 C.3       1 MOL         0.0000
     25 C25         4.3532   -4.4855   -4.1045 C.3       1 MOL         0.0000
     26 C26         3.5402   -3.3457   -3.4772 C.3       1 MOL         0.0000
     27 N1          2.8706   -2.5585   -4.4874 N.am      1 MOL         0.0000
     28 N2         -1.0008   -1.3248   -3.6097 N.4       1 MOL         0.0000
     29 O1         -2.1535   -4.0194   -0.8361 O.co2     1 MOL         0.0000
     30 O2          3.5109   -2.1733    5.2384 O.co2     1 MOL         0.0000
     31 O3          0.9207   -3.8114   -4.5561 O.2       1 MOL         0.0000
     32 O4         -0.8242   -4.3844   -2.6243 O.co2     1 MOL         0.0000
     33 O5          2.7197   -4.3053    5.0321 O.co2     1 MOL         0.0000
     34 O6          0.9646   -4.6756    0.1520 O.3       1 MOL         0.0000
     35 O7          2.8704   -2.8242    1.2679 O.3       1 MOL         0.0000
     36 H1          0.9901   -1.7211   -9.3944 H         1 MOL         0.0000
     37 H2         -0.3138    0.3098   -8.8197 H         1 MOL         0.0000
     38 H3          1.8696   -3.1789   -7.6057 H         1 MOL         0.0000
     39 H4         -0.7408    0.8822   -6.4528 H         1 MOL         0.0000
     40 H5          0.7584    0.4318   -1.0216 H         1 MOL         0.0000
     41 H6          2.5369   -0.3824    0.4787 H         1 MOL         0.0000
     42 H7          2.9587   -5.1337   -0.0874 H         1 MOL         0.0000
     43 H8          2.0772   -6.0971    1.1145 H         1 MOL         0.0000
     44 H9          1.8397   -4.0329    2.5770 H         1 MOL         0.0000
     45 H10         4.2911   -5.8187   -2.3852 H         1 MOL         0.0000
     46 H11         5.5666   -6.1853   -3.5544 H         1 MOL         0.0000
     47 H12         5.7421   -4.7991   -2.4658 H         1 MOL         0.0000
     48 H13         5.2332   -2.0052   -3.2367 H         1 MOL         0.0000
     49 H14         3.8596   -1.6287   -2.1775 H         1 MOL         0.0000
     50 H15         4.8987   -3.0116   -1.8175 H         1 MOL         0.0000
     51 H16        -2.6787   -0.2912   -4.3757 H         1 MOL         0.0000
     52 H17        -2.0446   -1.6077   -5.4268 H         1 MOL         0.0000
     53 H18        -2.9732   -2.0122   -3.9387 H         1 MOL         0.0000
     54 H19         0.9582   -0.5618   -3.6393 H         1 MOL         0.0000
     55 H20        -0.2910    0.5735   -4.1695 H         1 MOL         0.0000
     56 H21        -2.2000   -1.3922   -1.9073 H         1 MOL         0.0000
     57 H22        -1.2836    0.1060   -2.1218 H         1 MOL         0.0000
     58 H23         5.3245   -3.9759    3.9693 H         1 MOL         0.0000
     59 H24         4.6326   -2.6297    3.0630 H         1 MOL         0.0000
     60 H25         3.7439   -5.5686    2.9269 H         1 MOL         0.0000
     61 H26         4.6705   -4.6871    1.7169 H         1 MOL         0.0000
     62 H27         5.1316   -4.0654   -4.7530 H         1 MOL         0.0000
     63 H28         3.7084   -5.1079   -4.7373 H         1 MOL         0.0000
     64 H29         2.7550   -3.7649   -2.8373 H         1 MOL         0.0000
     65 H30         3.3967   -1.7964   -4.9025 H         1 MOL         0.0000
     66 H31        -0.6472   -2.2946   -3.6529 H         1 MOL         0.0000
@<TRIPOS>BOND
     1    1    2 ar
     2    1    3 ar
     3    2    4 ar
     4    3    7 ar
     5    4    9 ar
     6    5    6 ar
     7    5   10 ar
     8    6   11 ar
     9    7    9 ar
    10    7   13 1
    11    8   10 ar
    12    8   12 ar
    13    8   14 1
    14    9   21 1
    15   10   22 1
    16   11   12 ar
    17   11   35 1
    18   12   34 1
    19   13   27 am
    20   13   31 2
    21   14   29 1
    22   14   32 2
    23   15   23 1
    24   15   30 1
    25   15   33 2
    26   16   17 1
    27   16   34 1
    28   17   24 1
    29   17   35 1
    30   18   25 1
    31   19   26 1
    32   20   28 1
    33   21   28 1
    34   22   28 1
    35   23   24 1
    36   25   26 1
    37   26   27 1
    38    1   36 1
    39    2   37 1
    40    3   38 1
    41    4   39 1
    42    5   40 1
    43    6   41 1
    44   16   42 1
    45   16   43 1
    46   17   44 1
    47   18   45 1
    48   18   46 1
    49   18   47 1
    50   19   48 1
    51   19   49 1
    52   19   50 1
    53   20   51 1
    54   20   52 1
    55   20   53 1
    56   21   54 1
    57   21   55 1
    58   22   56 1
    59   22   57 1
    60   23   58 1
    61   23   59 1
    62   24   60 1
    63   24   61 1
    64   25   62 1
    65   25   63 1
    66   26   64 1
    67   27   65 1
    68   28   66 1
