@<TRIPOS>MOLECULE
AVX38786_3
   71    74     0     0     0
SMALL
NO_CHARGES

@<TRIPOS>ATOM
      1 C1          0.1972   -6.1676   -2.6620 C.ar      1 MOL         0.0000
      2 C2         -0.9536   -5.7030   -2.0253 C.ar      1 MOL         0.0000
      3 C3          0.7277   -5.4647   -3.7438 C.ar      1 MOL         0.0000
      4 C4         -1.5741   -4.5358   -2.4704 C.ar      1 MOL         0.0000
      5 C5          1.0985   -0.7214   -1.3057 C.ar      1 MOL         0.0000
      6 C6          1.9015   -0.1704   -7.1012 C.ar      1 MOL         0.0000
      7 C7          2.8702   -0.2433   -4.8891 C.ar      1 MOL         0.0000
      8 C8          2.1321    0.0505   -0.7747 C.ar      1 MOL         0.0000
      9 C9          1.7076    1.2047   -6.9710 C.ar      1 MOL         0.0000
     10 C10         2.6764    1.1319   -4.7589 C.ar      1 MOL         0.0000
     11 C11         0.1073   -4.2975   -4.1890 C.ar      1 MOL         0.0000
     12 C12        -0.3367    1.2237   -1.3569 C.ar      1 MOL         0.0000
     13 C13         2.4827   -0.8945   -6.0602 C.ar      1 MOL         0.0000
     14 C14        -1.0436   -3.8330   -3.5523 C.ar      1 MOL         0.0000
     15 C15        -0.1324   -0.1345   -1.6013 C.ar      1 MOL         0.0000
     16 C16         1.9328    1.4118   -0.5432 C.ar      1 MOL         0.0000
     17 C17         0.6922    1.9935   -0.8137 C.ar      1 MOL         0.0000
     18 C18         2.0951    1.8559   -5.7999 C.ar      1 MOL         0.0000
     19 C19         0.6818   -3.5835   -5.3212 C.2       1 MOL         0.0000
     20 C20        -1.6444    1.8393   -1.6627 C.2       1 MOL         0.0000
     21 C21         5.7161    4.0885   -1.1522 C.2       1 MOL         0.0000
     22 C22         1.4018    3.9155    0.2793 C.3       1 MOL         0.0000
     23 C23         2.8049    3.5368   -0.1757 C.3       1 MOL         0.0000
     24 C24        -1.3292   -0.1769   -4.5299 C.3       1 MOL         0.0000
     25 C25         2.3262    3.8001   -4.4499 C.3       1 MOL         0.0000
     26 C26         2.6919   -2.3746   -6.2004 C.3       1 MOL         0.0000
     27 C27        -1.7316   -2.5809   -4.0106 C.3       1 MOL         0.0000
     28 C28        -1.2157   -0.9880   -2.1764 C.3       1 MOL         0.0000
     29 C29         5.2662    3.7888    0.2825 C.3       1 MOL         0.0000
     30 C30         3.8664    4.2271    0.6682 C.3       1 MOL         0.0000
     31 N1          1.9932   -3.1189   -5.1774 N.am      1 MOL         0.0000
     32 N2         -1.0008   -1.3248   -3.6097 N.4       1 MOL         0.0000
     33 O1         -1.8304    2.3371   -2.8330 O.co2     1 MOL         0.0000
     34 O2          6.5437    3.2843   -1.6619 O.co2     1 MOL         0.0000
     35 O3          0.0107   -3.3902   -6.3491 O.2       1 MOL         0.0000
     36 O4         -2.5459    1.8537   -0.7467 O.co2     1 MOL         0.0000
     37 O5          5.1812    5.1166   -1.6590 O.co2     1 MOL         0.0000
     38 O6          0.4248    3.3162   -0.5780 O.3       1 MOL         0.0000
     39 O7          2.9916    2.1213   -0.0406 O.3       1 MOL         0.0000
     40 O8          1.9071    3.1980   -5.6736 O.3       1 MOL         0.0000
     41 H1          0.6809   -7.0764   -2.3155 H         1 MOL         0.0000
     42 H2         -1.3664   -6.2509   -1.1831 H         1 MOL         0.0000
     43 H3          1.6244   -5.8377   -4.2321 H         1 MOL         0.0000
     44 H4         -2.4700   -4.1822   -1.9670 H         1 MOL         0.0000
     45 H5          1.2639   -1.7798   -1.4899 H         1 MOL         0.0000
     46 H6          1.5965   -0.6695   -8.0170 H         1 MOL         0.0000
     47 H7          3.3238   -0.7995   -4.0727 H         1 MOL         0.0000
     48 H8          3.0906   -0.4124   -0.5569 H         1 MOL         0.0000
     49 H9          1.2545    1.7634   -7.7857 H         1 MOL         0.0000
     50 H10         2.9807    1.6333   -3.8445 H         1 MOL         0.0000
     51 H11         1.2040    3.5916    1.3091 H         1 MOL         0.0000
     52 H12         1.2586    5.0002    0.2308 H         1 MOL         0.0000
     53 H13         2.9543    3.7995   -1.2319 H         1 MOL         0.0000
     54 H14        -2.3902    0.0512   -4.4137 H         1 MOL         0.0000
     55 H15        -0.7103    0.6735   -4.2374 H         1 MOL         0.0000
     56 H16        -1.1052   -0.4925   -5.5508 H         1 MOL         0.0000
     57 H17         2.1190    4.8726   -4.4809 H         1 MOL         0.0000
     58 H18         3.3960    3.6288   -4.3061 H         1 MOL         0.0000
     59 H19         1.7726    3.3481   -3.6235 H         1 MOL         0.0000
     60 H20         2.3350   -2.7244   -7.1752 H         1 MOL         0.0000
     61 H21         3.7548   -2.6293   -6.1327 H         1 MOL         0.0000
     62 H22        -1.8237   -2.5565   -5.1017 H         1 MOL         0.0000
     63 H23        -2.7397   -2.5065   -3.5888 H         1 MOL         0.0000
     64 H24        -1.3007   -1.9434   -1.6429 H         1 MOL         0.0000
     65 H25        -2.1924   -0.4909   -2.1179 H         1 MOL         0.0000
     66 H26         5.9724    4.3125    0.9391 H         1 MOL         0.0000
     67 H27         5.3901    2.7147    0.4697 H         1 MOL         0.0000
     68 H28         3.7361    5.3032    0.5666 H         1 MOL         0.0000
     69 H29         3.6714    3.9637    1.7075 H         1 MOL         0.0000
     70 H30         2.4729   -3.2496   -4.2928 H         1 MOL         0.0000
     71 H31         0.0056   -1.5198   -3.7389 H         1 MOL         0.0000
@<TRIPOS>BOND
     1    1    2 ar
     2    1    3 ar
     3    2    4 ar
     4    3   11 ar
     5    4   14 ar
     6    5    8 ar
     7    5   15 ar
     8    6    9 ar
     9    6   13 ar
    10    7   10 ar
    11    7   13 ar
    12    8   16 ar
    13    9   18 ar
    14   10   18 ar
    15   11   14 ar
    16   11   19 1
    17   12   15 ar
    18   12   17 ar
    19   12   20 1
    20   13   26 1
    21   14   27 1
    22   15   28 1
    23   16   17 ar
    24   16   39 1
    25   17   38 1
    26   18   40 1
    27   19   31 am
    28   19   35 2
    29   20   33 1
    30   20   36 2
    31   21   29 1
    32   21   34 1
    33   21   37 2
    34   22   23 1
    35   22   38 1
    36   23   30 1
    37   23   39 1
    38   24   32 1
    39   25   40 1
    40   26   31 1
    41   27   32 1
    42   28   32 1
    43   29   30 1
    44    1   41 1
    45    2   42 1
    46    3   43 1
    47    4   44 1
    48    5   45 1
    49    6   46 1
    50    7   47 1
    51    8   48 1
    52    9   49 1
    53   10   50 1
    54   22   51 1
    55   22   52 1
    56   23   53 1
    57   24   54 1
    58   24   55 1
    59   24   56 1
    60   25   57 1
    61   25   58 1
    62   25   59 1
    63   26   60 1
    64   26   61 1
    65   27   62 1
    66   27   63 1
    67   28   64 1
    68   28   65 1
    69   29   66 1
    70   29   67 1
    71   30   68 1
    72   30   69 1
    73   31   70 1
    74   32   71 1
