@<TRIPOS>MOLECULE
AVX38752_1
   57    60     0     0     0
SMALL
NO_CHARGES

@<TRIPOS>ATOM
      1 C1          3.1728    5.9443    4.7706 C.ar      1 MOL         0.0000
      2 C2          5.6817   -2.0472    1.3447 C.ar      1 MOL         0.0000
      3 C3          4.5010    5.5194    4.7399 C.ar      1 MOL         0.0000
      4 C4          2.1601    5.0443    5.1026 C.ar      1 MOL         0.0000
      5 C5          4.7740   -1.7161    0.3388 C.ar      1 MOL         0.0000
      6 C6          5.8325   -1.2111    2.4510 C.ar      1 MOL         0.0000
      7 C7          4.8165    4.1945    5.0412 C.ar      1 MOL         0.0000
      8 C8          2.4756    3.7194    5.4039 C.ar      1 MOL         0.0000
      9 C9          4.0170   -0.5487    0.4391 C.ar      1 MOL         0.0000
     10 C10         0.3652    2.5623    2.1282 C.ar      1 MOL         0.0000
     11 C11         1.0995    3.6242    0.0639 C.ar      1 MOL         0.0000
     12 C12         5.0756   -0.0438    2.5513 C.ar      1 MOL         0.0000
     13 C13        -0.5446    3.5957    2.3651 C.ar      1 MOL         0.0000
     14 C14         3.8039    3.2945    5.3732 C.ar      1 MOL         0.0000
     15 C15         1.1825    2.5765    0.9842 C.ar      1 MOL         0.0000
     16 C16         4.1678    0.2874    1.5454 C.ar      1 MOL         0.0000
     17 C17         0.1931    4.6322    0.3212 C.ar      1 MOL         0.0000
     18 C18        -0.6070    4.6183    1.4409 C.ar      1 MOL         0.0000
     19 C19         6.2215    2.8213   -0.0419 C.2       1 MOL         0.0000
     20 C20         4.8932    2.7588    0.1020 C.2       1 MOL         0.0000
     21 C21         5.2550    0.8097    3.7186 C.2       1 MOL         0.0000
     22 C22        -1.4005    3.5832    3.5596 C.2       1 MOL         0.0000
     23 C23        -1.0541    6.4002    0.2978 C.3       1 MOL         0.0000
     24 C24         4.1428    1.8682    5.6974 C.3       1 MOL         0.0000
     25 C25         2.1474    1.4619    0.7519 C.3       1 MOL         0.0000
     26 C26         4.1978    2.7519    1.4233 C.3       1 MOL         0.0000
     27 N1          4.1308    1.0287    4.5211 N.am      1 MOL         0.0000
     28 N2          3.3479    1.5283    1.6296 N.4       1 MOL         0.0000
     29 O1         -1.2980    2.6009    4.3879 O.co2     1 MOL         0.0000
     30 O2          6.3604    1.3244    3.9570 O.2       1 MOL         0.0000
     31 O3         -2.2278    4.5546    3.7423 O.co2     1 MOL         0.0000
     32 O4         -0.0266    5.7263   -0.4575 O.3       1 MOL         0.0000
     33 O5         -1.4275    5.7021    1.5034 O.3       1 MOL         0.0000
     34 H1          2.9274    6.9762    4.5373 H         1 MOL         0.0000
     35 H2          6.2710   -2.9562    1.2665 H         1 MOL         0.0000
     36 H3          5.2897    6.2203    4.4825 H         1 MOL         0.0000
     37 H4          1.1260    5.3750    5.1276 H         1 MOL         0.0000
     38 H5          4.6566   -2.3672   -0.5225 H         1 MOL         0.0000
     39 H6          6.5434   -1.4804    3.2282 H         1 MOL         0.0000
     40 H7          5.8542    3.8723    5.0147 H         1 MOL         0.0000
     41 H8          1.6801    3.0252    5.6613 H         1 MOL         0.0000
     42 H9          3.3127   -0.3007   -0.3508 H         1 MOL         0.0000
     43 H10         0.4438    1.7377    2.8340 H         1 MOL         0.0000
     44 H11         1.7242    3.6469   -0.8225 H         1 MOL         0.0000
     45 H12         6.6674    2.8275   -1.0306 H         1 MOL         0.0000
     46 H13         6.8836    2.8680    0.8155 H         1 MOL         0.0000
     47 H14         4.2741    2.7190   -0.7904 H         1 MOL         0.0000
     48 H15        -0.6934    7.3993    0.5682 H         1 MOL         0.0000
     49 H16        -1.9426    6.5057   -0.3353 H         1 MOL         0.0000
     50 H17         5.1384    1.8012    6.1495 H         1 MOL         0.0000
     51 H18         3.4305    1.4485    6.4155 H         1 MOL         0.0000
     52 H19         1.6851    0.4828    0.9349 H         1 MOL         0.0000
     53 H20         2.5201    1.4597   -0.2812 H         1 MOL         0.0000
     54 H21         3.5244    3.6111    1.5001 H         1 MOL         0.0000
     55 H22         4.8986    2.7821    2.2636 H         1 MOL         0.0000
     56 H23         3.2376    0.6344    4.2445 H         1 MOL         0.0000
     57 H24         3.0095    1.5767    2.6043 H         1 MOL         0.0000
@<TRIPOS>BOND
     1    1    3 ar
     2    1    4 ar
     3    2    5 ar
     4    2    6 ar
     5    3    7 ar
     6    4    8 ar
     7    5    9 ar
     8    6   12 ar
     9    7   14 ar
    10    8   14 ar
    11    9   16 ar
    12   10   13 ar
    13   10   15 ar
    14   11   15 ar
    15   11   17 ar
    16   12   16 ar
    17   12   21 1
    18   13   18 ar
    19   13   22 1
    20   14   24 1
    21   15   25 1
    22   16   28 1
    23   17   18 ar
    24   17   32 1
    25   18   33 1
    26   19   20 2
    27   20   26 1
    28   21   27 am
    29   21   30 2
    30   22   29 1
    31   22   31 2
    32   23   32 1
    33   23   33 1
    34   24   27 1
    35   25   28 1
    36   26   28 1
    37    1   34 1
    38    2   35 1
    39    3   36 1
    40    4   37 1
    41    5   38 1
    42    6   39 1
    43    7   40 1
    44    8   41 1
    45    9   42 1
    46   10   43 1
    47   11   44 1
    48   19   45 1
    49   19   46 1
    50   20   47 1
    51   23   48 1
    52   23   49 1
    53   24   50 1
    54   24   51 1
    55   25   52 1
    56   25   53 1
    57   26   54 1
    58   26   55 1
    59   27   56 1
    60   28   57 1
