AVX38749_0
  -OEChem-04011314583D

 64 67  0     1  0  0  0  0  0999 V2000
    2.0069    1.7310   -0.6805 C   0  0  0  0  0  0  0  0  0  0  0  0
    2.2404    0.4799   -1.2717 C   0  0  0  0  0  0  0  0  0  0  0  0
    0.8190    1.9810    0.0082 C   0  0  0  0  0  0  0  0  0  0  0  0
    1.2891   -0.5394   -1.1834 C   0  0  0  0  0  0  0  0  0  0  0  0
   -2.8127   -3.8482    0.6768 C   0  0  0  0  0  0  0  0  0  0  0  0
   -3.9240   -4.6610    0.4521 C   0  0  0  0  0  0  0  0  0  0  0  0
   -2.1983   -4.0325   -1.6544 C   0  0  0  0  0  0  0  0  0  0  0  0
   -0.1125    0.9601    0.1024 C   0  0  0  0  0  0  0  0  0  0  0  0
    0.1167   -0.2913   -0.4868 C   0  0  0  0  0  0  0  0  0  0  0  0
   -1.9480   -3.5390   -0.3737 C   0  0  0  0  0  0  0  0  0  0  0  0
   -4.1671   -5.1662   -0.8254 C   0  0  0  0  0  0  0  0  0  0  0  0
   -3.3171   -4.8341   -1.8827 C   0  0  0  0  0  0  0  0  0  0  0  0
   -1.2856   -3.6953   -2.7660 C   0  0  0  0  0  0  0  0  0  0  0  0
   -2.0952   -0.9625    3.3436 C   0  0  0  0  0  0  0  0  0  0  0  0
   -8.2922   -9.0448   -1.4666 C   0  0  0  0  0  0  0  0  0  0  0  0
   -1.4594    1.0068    0.7597 C   0  0  0  0  0  0  0  0  0  0  0  0
   -4.8473   -5.7750   -3.3535 C   0  0  0  0  0  0  0  0  0  0  0  0
   -1.0743   -1.1908   -0.2824 C   0  0  2  0  0  0  0  0  0  0  0  0
   -1.7710   -0.4967    0.9214 C   0  0  1  0  0  0  0  0  0  0  0  0
   -5.2227   -6.7091   -2.2107 C   0  0  2  0  0  0  0  0  0  0  0  0
   -0.7528   -2.6669   -0.0948 C   0  0  0  0  0  0  0  0  0  0  0  0
   -1.3505   -1.5155    4.5459 C   0  0  0  0  0  0  0  0  0  0  0  0
   -6.9443   -8.3247   -1.3413 C   0  0  0  0  0  0  0  0  0  0  0  0
   -6.5973   -7.3247   -2.4274 C   0  0  0  0  0  0  0  0  0  0  0  0
   -2.2031   -1.5144    5.8124 C   0  0  0  0  0  0  0  0  0  0  0  0
   -1.4136   -2.0359    7.0033 C   0  0  0  0  0  0  0  0  0  0  0  0
   -1.3022   -0.9736    2.2078 N   0  0  0  0  0  0  0  0  0  0  0  0
   -2.2932   -2.0595    8.1967 N   0  3  0  0  0  0  0  0  0  0  0  0
   -1.5262   -2.6404   -3.4598 O   0  5  0  0  0  0  0  0  0  0  0  0
   -8.5737   -9.8737   -0.5582 O   0  5  0  0  0  0  0  0  0  0  0  0
   -0.2862   -4.4697   -2.9969 O   0  0  0  0  0  0  0  0  0  0  0  0
   -3.2542   -0.5602    3.3963 O   0  0  0  0  0  0  0  0  0  0  0  0
   -8.9713   -8.7013   -2.4769 O   0  0  0  0  0  0  0  0  0  0  0  0
   -3.5212   -5.2711   -3.1650 O   0  0  0  0  0  0  0  0  0  0  0  0
   -5.2622   -5.9750   -0.9791 O   0  0  0  0  0  0  0  0  0  0  0  0
    2.7566    2.5131   -0.7651 H   0  0  0  0  0  0  0  0  0  0  0  0
    3.1684    0.3057   -1.8097 H   0  0  0  0  0  0  0  0  0  0  0  0
    0.6345    2.9522    0.4544 H   0  0  0  0  0  0  0  0  0  0  0  0
    1.4725   -1.4974   -1.6578 H   0  0  0  0  0  0  0  0  0  0  0  0
   -2.6263   -3.4643    1.6764 H   0  0  0  0  0  0  0  0  0  0  0  0
   -4.5858   -4.9057    1.2784 H   0  0  0  0  0  0  0  0  0  0  0  0
   -1.4342    1.5384    1.7158 H   0  0  0  0  0  0  0  0  0  0  0  0
   -2.1761    1.4849    0.0830 H   0  0  0  0  0  0  0  0  0  0  0  0
   -4.8620   -6.3075   -4.3104 H   0  0  0  0  0  0  0  0  0  0  0  0
   -5.5345   -4.9224   -3.4284 H   0  0  0  0  0  0  0  0  0  0  0  0
   -1.7182   -1.0792   -1.1687 H   0  0  0  0  0  0  0  0  0  0  0  0
   -2.8517   -0.6815    0.9103 H   0  0  0  0  0  0  0  0  0  0  0  0
   -4.4789   -7.5105   -2.1040 H   0  0  0  0  0  0  0  0  0  0  0  0
   -0.3985   -2.8401    0.9281 H   0  0  0  0  0  0  0  0  0  0  0  0
    0.0751   -2.9509   -0.7551 H   0  0  0  0  0  0  0  0  0  0  0  0
   -0.4508   -0.9078    4.7004 H   0  0  0  0  0  0  0  0  0  0  0  0
   -1.0311   -2.5378    4.3105 H   0  0  0  0  0  0  0  0  0  0  0  0
   -6.1773   -9.1093   -1.3532 H   0  0  0  0  0  0  0  0  0  0  0  0
   -6.8961   -7.8437   -0.3563 H   0  0  0  0  0  0  0  0  0  0  0  0
   -7.3264   -6.5184   -2.4844 H   0  0  0  0  0  0  0  0  0  0  0  0
   -6.5756   -7.8248   -3.3952 H   0  0  0  0  0  0  0  0  0  0  0  0
   -3.0963   -2.1328    5.6564 H   0  0  0  0  0  0  0  0  0  0  0  0
   -2.5590   -0.4964    6.0164 H   0  0  0  0  0  0  0  0  0  0  0  0
   -1.0643   -3.0607    6.8464 H   0  0  0  0  0  0  0  0  0  0  0  0
   -0.5648   -1.3905    7.2473 H   0  0  0  0  0  0  0  0  0  0  0  0
   -0.3415   -1.2919    2.2694 H   0  0  0  0  0  0  0  0  0  0  0  0
   -2.0813   -2.8662    8.7939 H   0  0  0  0  0  0  0  0  0  0  0  0
   -3.2805   -2.1196    7.9239 H   0  0  0  0  0  0  0  0  0  0  0  0
   -2.1725   -1.2100    8.7593 H   0  0  0  0  0  0  0  0  0  0  0  0
  1  2  1  0  0  0  0
  1  3  2  0  0  0  0
  2  4  2  0  0  0  0
  3  8  1  0  0  0  0
  4  9  1  0  0  0  0
  5  6  2  0  0  0  0
  5 10  1  0  0  0  0
  6 11  1  0  0  0  0
  7 10  2  0  0  0  0
  7 12  1  0  0  0  0
  7 13  1  0  0  0  0
  8  9  2  0  0  0  0
  8 16  1  0  0  0  0
  9 18  1  0  0  0  0
 10 21  1  0  0  0  0
 11 12  2  0  0  0  0
 11 35  1  0  0  0  0
 12 34  1  0  0  0  0
 13 29  1  0  0  0  0
 13 31  2  0  0  0  0
 14 22  1  0  0  0  0
 14 27  1  0  0  0  0
 14 32  2  0  0  0  0
 15 23  1  0  0  0  0
 15 30  1  0  0  0  0
 15 33  2  0  0  0  0
 16 19  1  0  0  0  0
 17 20  1  0  0  0  0
 17 34  1  0  0  0  0
 18 19  1  0  0  0  0
 18 21  1  0  0  0  0
 19 27  1  0  0  0  0
 20 24  1  0  0  0  0
 20 35  1  0  0  0  0
 22 25  1  0  0  0  0
 23 24  1  0  0  0  0
 25 26  1  0  0  0  0
 26 28  1  0  0  0  0
  1 36  1  0  0  0  0
  2 37  1  0  0  0  0
  3 38  1  0  0  0  0
  4 39  1  0  0  0  0
  5 40  1  0  0  0  0
  6 41  1  0  0  0  0
 16 42  1  0  0  0  0
 16 43  1  0  0  0  0
 17 44  1  0  0  0  0
 17 45  1  0  0  0  0
 18 46  1  0  0  0  0
 19 47  1  0  0  0  0
 20 48  1  0  0  0  0
 21 49  1  0  0  0  0
 21 50  1  0  0  0  0
 22 51  1  0  0  0  0
 22 52  1  0  0  0  0
 23 53  1  0  0  0  0
 23 54  1  0  0  0  0
 24 55  1  0  0  0  0
 24 56  1  0  0  0  0
 25 57  1  0  0  0  0
 25 58  1  0  0  0  0
 26 59  1  0  0  0  0
 26 60  1  0  0  0  0
 27 61  1  0  0  0  0
 28 62  1  0  0  0  0
 28 63  1  0  0  0  0
 28 64  1  0  0  0  0
M  CHG  3  28   1  29  -1  30  -1
M  END
$$$$
