@<TRIPOS>MOLECULE
AVX38670_0
   63    66     0     0     0
SMALL
NO_CHARGES

@<TRIPOS>ATOM
      1 C1          3.8350    0.9248    2.1364 C.ar      1 MOL         0.0000
      2 C2          3.9377   -0.4156    1.7644 C.ar      1 MOL         0.0000
      3 C3          2.7754    1.7001    1.6655 C.ar      1 MOL         0.0000
      4 C4          2.9807   -0.9807    0.9213 C.ar      1 MOL         0.0000
      5 C5          1.8185    1.1351    0.8225 C.ar      1 MOL         0.0000
      6 C6         -0.8678   -4.3929   -1.8704 C.ar      1 MOL         0.0000
      7 C7          0.1467   -0.6853   -5.8004 C.ar      1 MOL         0.0000
      8 C8         -1.5397    0.4980   -4.5383 C.ar      1 MOL         0.0000
      9 C9         -1.0660   -4.2145   -3.2416 C.ar      1 MOL         0.0000
     10 C10        -0.8473   -1.2475   -6.6014 C.ar      1 MOL         0.0000
     11 C11        -2.5336   -0.0641   -5.3393 C.ar      1 MOL         0.0000
     12 C12         1.4555   -5.0180   -2.2439 C.ar      1 MOL         0.0000
     13 C13        -0.1995    0.1874   -4.7688 C.ar      1 MOL         0.0000
     14 C14         1.9211   -0.2053    0.4504 C.ar      1 MOL         0.0000
     15 C15         0.3857   -4.7923   -1.3743 C.ar      1 MOL         0.0000
     16 C16         0.0065   -4.4439   -4.0787 C.ar      1 MOL         0.0000
     17 C17         1.2335   -4.8348   -3.5933 C.ar      1 MOL         0.0000
     18 C18        -2.1874   -0.9369   -6.3709 C.ar      1 MOL         0.0000
     19 C19         2.7774   -5.4356   -1.7499 C.2       1 MOL         0.0000
     20 C20         1.2680   -0.6743   -1.9311 C.2       1 MOL         0.0000
     21 C21        -0.2663   -2.6773    0.7165 C.2       1 MOL         0.0000
     22 C22         1.3637   -4.6792   -5.7475 C.3       1 MOL         0.0000
     23 C23        -1.2511   -4.7191    1.7841 C.3       1 MOL         0.0000
     24 C24        -2.7326   -2.3675   -8.1907 C.3       1 MOL         0.0000
     25 C25         0.8703    0.7931   -3.9069 C.3       1 MOL         0.0000
     26 C26         0.5491   -4.9707    0.1074 C.3       1 MOL         0.0000
     27 C27         0.8843   -0.8167   -0.4630 C.3       1 MOL         0.0000
     28 N1          0.7004    0.4505   -2.5132 N.am      1 MOL         0.0000
     29 N2          0.6837   -2.2227   -0.1939 N.am      1 MOL         0.0000
     30 N3         -0.3217   -4.0754    0.8651 N.am      1 MOL         0.0000
     31 O1          3.6405   -4.5290   -1.4465 O.co2     1 MOL         0.0000
     32 O2          3.0281   -6.6939   -1.6375 O.co2     1 MOL         0.0000
     33 O3          1.9682   -1.4958   -2.5197 O.2       1 MOL         0.0000
     34 O4         -0.9929   -1.9032    1.3469 O.2       1 MOL         0.0000
     35 O5          0.0022   -4.3210   -5.4340 O.3       1 MOL         0.0000
     36 O6          2.1508   -5.0059   -4.5839 O.3       1 MOL         0.0000
     37 O7         -3.1571   -1.4845   -7.1534 O.3       1 MOL         0.0000
     38 H1          4.5795    1.3642    2.7939 H         1 MOL         0.0000
     39 H2          4.7620   -1.0198    2.1318 H         1 MOL         0.0000
     40 H3          2.6946    2.7434    1.9559 H         1 MOL         0.0000
     41 H4          3.0689   -2.0258    0.6365 H         1 MOL         0.0000
     42 H5          0.9964    1.7469    0.4604 H         1 MOL         0.0000
     43 H6         -1.6954   -4.2188   -1.1867 H         1 MOL         0.0000
     44 H7          1.1882   -0.9330   -5.9870 H         1 MOL         0.0000
     45 H8         -1.8187    1.1770   -3.7366 H         1 MOL         0.0000
     46 H9         -2.0308   -3.9066   -3.6281 H         1 MOL         0.0000
     47 H10        -0.5712   -1.9265   -7.4037 H         1 MOL         0.0000
     48 H11        -3.5756    0.1821   -5.1549 H         1 MOL         0.0000
     49 H12         1.3528   -5.5460   -6.4183 H         1 MOL         0.0000
     50 H13         1.8372   -3.8380   -6.2666 H         1 MOL         0.0000
     51 H14        -2.1934   -4.9366    1.2745 H         1 MOL         0.0000
     52 H15        -1.4547   -4.0645    2.6359 H         1 MOL         0.0000
     53 H16        -0.8274   -5.6560    2.1555 H         1 MOL         0.0000
     54 H17        -3.6046   -2.7331   -8.7385 H         1 MOL         0.0000
     55 H18        -2.1848   -3.2066   -7.7547 H         1 MOL         0.0000
     56 H19        -2.0773   -1.8232   -8.8749 H         1 MOL         0.0000
     57 H20         1.8611    0.4470   -4.2209 H         1 MOL         0.0000
     58 H21         0.8671    1.8853   -3.9859 H         1 MOL         0.0000
     59 H22         0.3126   -5.9993    0.4009 H         1 MOL         0.0000
     60 H23         1.5813   -4.7737    0.4155 H         1 MOL         0.0000
     61 H24        -0.0932   -0.3455   -0.3039 H         1 MOL         0.0000
     62 H25         0.1334    1.0728   -1.9448 H         1 MOL         0.0000
     63 H26         1.2543   -2.9007   -0.6847 H         1 MOL         0.0000
@<TRIPOS>BOND
     1    1    2 ar
     2    1    3 ar
     3    2    4 ar
     4    3    5 ar
     5    4   14 ar
     6    5   14 ar
     7    6    9 ar
     8    6   15 ar
     9    7   10 ar
    10    7   13 ar
    11    8   11 ar
    12    8   13 ar
    13    9   16 ar
    14   10   18 ar
    15   11   18 ar
    16   12   15 ar
    17   12   17 ar
    18   12   19 1
    19   13   25 1
    20   14   27 1
    21   15   26 1
    22   16   17 ar
    23   16   35 1
    24   17   36 1
    25   18   37 1
    26   19   31 1
    27   19   32 2
    28   20   27 1
    29   20   28 am
    30   20   33 2
    31   21   29 am
    32   21   30 am
    33   21   34 2
    34   22   35 1
    35   22   36 1
    36   23   30 1
    37   24   37 1
    38   25   28 1
    39   26   30 1
    40   27   29 1
    41    1   38 1
    42    2   39 1
    43    3   40 1
    44    4   41 1
    45    5   42 1
    46    6   43 1
    47    7   44 1
    48    8   45 1
    49    9   46 1
    50   10   47 1
    51   11   48 1
    52   22   49 1
    53   22   50 1
    54   23   51 1
    55   23   52 1
    56   23   53 1
    57   24   54 1
    58   24   55 1
    59   24   56 1
    60   25   57 1
    61   25   58 1
    62   26   59 1
    63   26   60 1
    64   27   61 1
    65   28   62 1
    66   29   63 1
