AVX38708_0
  -OEChem-04011314563D

 56 59  0     1  0  0  0  0  0999 V2000
    1.4051    5.4140    5.2090 C   0  0  0  0  0  0  0  0  0  0  0  0
    6.1697   -0.9195    1.3540 C   0  0  0  0  0  0  0  0  0  0  0  0
    2.0526    4.4192    5.9416 C   0  0  0  0  0  0  0  0  0  0  0  0
    0.7319    5.0870    4.0319 C   0  0  0  0  0  0  0  0  0  0  0  0
    6.1217   -0.6543   -0.0145 C   0  0  0  0  0  0  0  0  0  0  0  0
    5.0231   -0.7694    2.1342 C   0  0  0  0  0  0  0  0  0  0  0  0
    2.0271    3.0973    5.4970 C   0  0  0  0  0  0  0  0  0  0  0  0
    0.7064    3.7651    3.5873 C   0  0  0  0  0  0  0  0  0  0  0  0
    4.9272   -0.2389   -0.6030 C   0  0  0  0  0  0  0  0  0  0  0  0
   -0.7386    1.8357   -0.3745 C   0  0  0  0  0  0  0  0  0  0  0  0
   -1.5465    2.5504    0.5131 C   0  0  0  0  0  0  0  0  0  0  0  0
    3.8286   -0.3539    1.5458 C   0  0  0  0  0  0  0  0  0  0  0  0
   -1.3560   -0.2660    0.6885 C   0  0  0  0  0  0  0  0  0  0  0  0
    1.3540    2.7703    4.3198 C   0  0  0  0  0  0  0  0  0  0  0  0
    3.7806   -0.0887    0.1772 C   0  0  0  0  0  0  0  0  0  0  0  0
   -0.6439    0.4356   -0.2874 C   0  0  0  0  0  0  0  0  0  0  0  0
   -2.2392    1.8338    1.4673 C   0  0  0  0  0  0  0  0  0  0  0  0
   -2.1466    0.4634    1.5526 C   0  0  0  0  0  0  0  0  0  0  0  0
    2.6465   -0.2045    2.3837 C   0  0  0  0  0  0  0  0  0  0  0  0
   -1.2748   -1.7312    0.8000 C   0  0  0  0  0  0  0  0  0  0  0  0
   -3.4899    1.1598    3.0993 C   0  0  0  0  0  0  0  0  0  0  0  0
    2.1117   -1.9125   -1.4187 C   0  0  0  0  0  0  0  0  0  0  0  0
    1.3263    1.3477    3.8406 C   0  0  0  0  0  0  0  0  0  0  0  0
    2.5096    0.3600   -0.4816 C   0  0  0  0  0  0  0  0  0  0  0  0
    0.2337   -0.2846   -1.2599 C   0  0  0  0  0  0  0  0  0  0  0  0
    2.4384    1.0495    2.9670 N   0  0  0  0  0  0  0  0  0  0  0  0
    1.5115   -0.7556   -0.6610 N   0  3  1  0  0  0  0  0  0  0  0  0
   -2.1128   -2.4507    0.1374 O   0  5  0  0  0  0  0  0  0  0  0  0
    1.8843   -1.1674    2.5735 O   0  0  0  0  0  0  0  0  0  0  0  0
   -0.3687   -2.2461    1.5568 O   0  0  0  0  0  0  0  0  0  0  0  0
   -3.0703    2.3554    2.4103 O   0  0  0  0  0  0  0  0  0  0  0  0
   -2.9079   -0.0446    2.5598 O   0  0  0  0  0  0  0  0  0  0  0  0
    1.4240    6.4430    5.5561 H   0  0  0  0  0  0  0  0  0  0  0  0
    7.0996   -1.2433    1.8128 H   0  0  0  0  0  0  0  0  0  0  0  0
    2.5759    4.6735    6.8587 H   0  0  0  0  0  0  0  0  0  0  0  0
    0.2268    5.8611    3.4619 H   0  0  0  0  0  0  0  0  0  0  0  0
    7.0148   -0.7712   -0.6214 H   0  0  0  0  0  0  0  0  0  0  0  0
    5.0738   -0.9781    3.1998 H   0  0  0  0  0  0  0  0  0  0  0  0
    2.5346    2.3288    6.0741 H   0  0  0  0  0  0  0  0  0  0  0  0
    0.1795    3.5197    2.6690 H   0  0  0  0  0  0  0  0  0  0  0  0
    4.9005   -0.0354   -1.6702 H   0  0  0  0  0  0  0  0  0  0  0  0
   -0.1813    2.3742   -1.1373 H   0  0  0  0  0  0  0  0  0  0  0  0
   -1.6224    3.6299    0.4494 H   0  0  0  0  0  0  0  0  0  0  0  0
   -3.2054    1.2447    4.1544 H   0  0  0  0  0  0  0  0  0  0  0  0
   -4.5813    1.0819    3.0341 H   0  0  0  0  0  0  0  0  0  0  0  0
    2.3450   -1.5660   -2.4272 H   0  0  0  0  0  0  0  0  0  0  0  0
    3.0154   -2.2242   -0.8917 H   0  0  0  0  0  0  0  0  0  0  0  0
    1.3733   -2.7162   -1.4410 H   0  0  0  0  0  0  0  0  0  0  0  0
    1.3672    0.6541    4.6875 H   0  0  0  0  0  0  0  0  0  0  0  0
    0.4029    1.1360    3.2912 H   0  0  0  0  0  0  0  0  0  0  0  0
    2.0107    1.1365    0.1082 H   0  0  0  0  0  0  0  0  0  0  0  0
    2.7042    0.7712   -1.4779 H   0  0  0  0  0  0  0  0  0  0  0  0
   -0.2640   -1.1732   -1.6680 H   0  0  0  0  0  0  0  0  0  0  0  0
    0.5059    0.3582   -2.1065 H   0  0  0  0  0  0  0  0  0  0  0  0
    3.1265    1.7825    2.8292 H   0  0  0  0  0  0  0  0  0  0  0  0
    1.3007   -1.1094    0.2866 H   0  0  0  0  0  0  0  0  0  0  0  0
  1  3  1  0  0  0  0
  1  4  2  0  0  0  0
  2  5  1  0  0  0  0
  2  6  2  0  0  0  0
  3  7  2  0  0  0  0
  4  8  1  0  0  0  0
  5  9  2  0  0  0  0
  6 12  1  0  0  0  0
  7 14  1  0  0  0  0
  8 14  2  0  0  0  0
  9 15  1  0  0  0  0
 10 11  2  0  0  0  0
 10 16  1  0  0  0  0
 11 17  1  0  0  0  0
 12 15  2  0  0  0  0
 12 19  1  0  0  0  0
 13 16  2  0  0  0  0
 13 18  1  0  0  0  0
 13 20  1  0  0  0  0
 14 23  1  0  0  0  0
 15 24  1  0  0  0  0
 16 25  1  0  0  0  0
 17 18  2  0  0  0  0
 17 31  1  0  0  0  0
 18 32  1  0  0  0  0
 19 26  1  0  0  0  0
 19 29  2  0  0  0  0
 20 28  1  0  0  0  0
 20 30  2  0  0  0  0
 21 31  1  0  0  0  0
 21 32  1  0  0  0  0
 22 27  1  0  0  0  0
 23 26  1  0  0  0  0
 24 27  1  0  0  0  0
 25 27  1  0  0  0  0
  1 33  1  0  0  0  0
  2 34  1  0  0  0  0
  3 35  1  0  0  0  0
  4 36  1  0  0  0  0
  5 37  1  0  0  0  0
  6 38  1  0  0  0  0
  7 39  1  0  0  0  0
  8 40  1  0  0  0  0
  9 41  1  0  0  0  0
 10 42  1  0  0  0  0
 11 43  1  0  0  0  0
 21 44  1  0  0  0  0
 21 45  1  0  0  0  0
 22 46  1  0  0  0  0
 22 47  1  0  0  0  0
 22 48  1  0  0  0  0
 23 49  1  0  0  0  0
 23 50  1  0  0  0  0
 24 51  1  0  0  0  0
 24 52  1  0  0  0  0
 25 53  1  0  0  0  0
 25 54  1  0  0  0  0
 26 55  1  0  0  0  0
 27 56  1  0  0  0  0
M  CHG  2  27   1  28  -1
M  END
$$$$
