@<TRIPOS>MOLECULE
AVX38669_0
   46    48     0     0     0
SMALL
NO_CHARGES

@<TRIPOS>ATOM
      1 C1          0.7042   -5.7151   -0.3109 C.ar      1 MOL         0.0000
      2 C2          1.8124   -4.8684   -0.2890 C.ar      1 MOL         0.0000
      3 C3         -0.4375   -5.3887    0.4212 C.ar      1 MOL         0.0000
      4 C4          1.7791   -3.6954    0.4651 C.ar      1 MOL         0.0000
      5 C5         -0.4707   -4.2157    1.1753 C.ar      1 MOL         0.0000
      6 C6         -2.5996    2.7318    1.7845 C.ar      1 MOL         0.0000
      7 C7         -2.9143    3.9118    2.4627 C.ar      1 MOL         0.0000
      8 C8         -4.9451    2.3679    1.2417 C.ar      1 MOL         0.0000
      9 C9          0.6376   -3.3690    1.1972 C.ar      1 MOL         0.0000
     10 C10        -3.6092    1.9643    1.1774 C.ar      1 MOL         0.0000
     11 C11        -4.2408    4.2880    2.5116 C.ar      1 MOL         0.0000
     12 C12        -5.2290    3.5368    1.9173 C.ar      1 MOL         0.0000
     13 C13        -6.0201    1.5829    0.6139 C.2       1 MOL         0.0000
     14 C14         1.1009   -2.3265    3.4319 C.2       1 MOL         0.0000
     15 C15        -1.2311   -0.6684    1.1327 C.2       1 MOL         0.0000
     16 C16        -6.1428    5.2636    2.8475 C.3       1 MOL         0.0000
     17 C17        -3.3506   -0.7340    2.4677 C.3       1 MOL         0.0000
     18 C18        -3.2210    0.7038    0.4599 C.3       1 MOL         0.0000
     19 C19         0.6009   -2.0974    2.0153 C.3       1 MOL         0.0000
     20 N1          2.4526   -2.0940    3.5719 N.am      1 MOL         0.0000
     21 N2         -0.7433   -1.5694    2.0754 N.am      1 MOL         0.0000
     22 N3         -2.5565   -0.2476    1.3471 N.am      1 MOL         0.0000
     23 O1         -6.3422    1.8382   -0.6068 O.co2     1 MOL         0.0000
     24 O2         -6.6038    0.6666    1.3056 O.co2     1 MOL         0.0000
     25 O3          0.3744   -2.6736    4.3605 O.2       1 MOL         0.0000
     26 O4         -0.5412   -0.2687    0.1899 O.2       1 MOL         0.0000
     27 O5         -4.7336    5.3996    3.1228 O.3       1 MOL         0.0000
     28 O6         -6.4641    4.0839    2.0824 O.3       1 MOL         0.0000
     29 H1          0.7297   -6.6277   -0.8991 H         1 MOL         0.0000
     30 H2          2.7010   -5.1218   -0.8599 H         1 MOL         0.0000
     31 H3         -1.3009   -6.0472    0.4036 H         1 MOL         0.0000
     32 H4          2.6474   -3.0418    0.4763 H         1 MOL         0.0000
     33 H5         -1.3644   -3.9697    1.7427 H         1 MOL         0.0000
     34 H6         -1.5621    2.4109    1.7295 H         1 MOL         0.0000
     35 H7         -2.1390    4.5065    2.9321 H         1 MOL         0.0000
     36 H8         -6.6839    5.2222    3.7998 H         1 MOL         0.0000
     37 H9         -6.4782    6.1456    2.2899 H         1 MOL         0.0000
     38 H10        -3.2151   -0.0826    3.3349 H         1 MOL         0.0000
     39 H11        -3.0424   -1.7478    2.7374 H         1 MOL         0.0000
     40 H12        -4.4108   -0.7493    2.2011 H         1 MOL         0.0000
     41 H13        -4.1043    0.2118    0.0385 H         1 MOL         0.0000
     42 H14        -2.5406    0.9182   -0.3709 H         1 MOL         0.0000
     43 H15         1.2287   -1.3308    1.5448 H         1 MOL         0.0000
     44 H16         3.0379   -1.7970    2.7977 H         1 MOL         0.0000
     45 H17         2.9102   -2.2084    4.4701 H         1 MOL         0.0000
     46 H18        -1.3516   -1.8651    2.8295 H         1 MOL         0.0000
@<TRIPOS>BOND
     1    1    2 ar
     2    1    3 ar
     3    2    4 ar
     4    3    5 ar
     5    4    9 ar
     6    5    9 ar
     7    6    7 ar
     8    6   10 ar
     9    7   11 ar
    10    8   10 ar
    11    8   12 ar
    12    8   13 1
    13    9   19 1
    14   10   18 1
    15   11   12 ar
    16   11   27 1
    17   12   28 1
    18   13   23 1
    19   13   24 2
    20   14   19 1
    21   14   20 am
    22   14   25 2
    23   15   21 am
    24   15   22 am
    25   15   26 2
    26   16   27 1
    27   16   28 1
    28   17   22 1
    29   18   22 1
    30   19   21 1
    31    1   29 1
    32    2   30 1
    33    3   31 1
    34    4   32 1
    35    5   33 1
    36    6   34 1
    37    7   35 1
    38   16   36 1
    39   16   37 1
    40   17   38 1
    41   17   39 1
    42   17   40 1
    43   18   41 1
    44   18   42 1
    45   19   43 1
    46   20   44 1
    47   20   45 1
    48   21   46 1
