@<TRIPOS>MOLECULE
AVX38784_7
   66    68     0     0     0
SMALL
NO_CHARGES

@<TRIPOS>ATOM
      1 C1          0.8041   -1.4712   -8.3538 C.ar      1 MOL         0.0000
      2 C2          0.0708   -0.3296   -8.0304 C.ar      1 MOL         0.0000
      3 C3          1.2986   -2.2927   -7.3407 C.ar      1 MOL         0.0000
      4 C4         -0.1679   -0.0093   -6.6939 C.ar      1 MOL         0.0000
      5 C5         -0.1264   -2.8783   -0.9826 C.ar      1 MOL         0.0000
      6 C6          0.8659   -3.4016   -0.1534 C.ar      1 MOL         0.0000
      7 C7          1.0600   -1.9724   -6.0042 C.ar      1 MOL         0.0000
      8 C8          0.8251   -0.6690   -0.7379 C.ar      1 MOL         0.0000
      9 C9          0.3267   -0.8308   -5.6808 C.ar      1 MOL         0.0000
     10 C10        -0.1436   -1.5148   -1.2787 C.ar      1 MOL         0.0000
     11 C11         1.8432   -2.5585    0.3763 C.ar      1 MOL         0.0000
     12 C12         1.8101   -1.1896    0.1019 C.ar      1 MOL         0.0000
     13 C13         1.5885   -2.8471   -4.9662 C.2       1 MOL         0.0000
     14 C14         0.7979    0.7754   -1.0464 C.2       1 MOL         0.0000
     15 C15         6.0518   -4.5184    0.9205 C.2       1 MOL         0.0000
     16 C16         3.4531   -0.8695    1.7113 C.3       1 MOL         0.0000
     17 C17         3.9324   -2.2713    1.3581 C.3       1 MOL         0.0000
     18 C18         5.0222   -1.9168   -3.0948 C.3       1 MOL         0.0000
     19 C19         3.7249   -5.2932   -4.5191 C.3       1 MOL         0.0000
     20 C20        -2.2816   -1.3075   -4.4044 C.3       1 MOL         0.0000
     21 C21         0.0557   -0.4623   -4.2519 C.3       1 MOL         0.0000
     22 C22        -1.2157   -0.9880   -2.1764 C.3       1 MOL         0.0000
     23 C23         5.1930   -4.2919    2.1703 C.3       1 MOL         0.0000
     24 C24         4.7840   -2.8628    2.4717 C.3       1 MOL         0.0000
     25 C25         5.0486   -3.3380   -3.6426 C.3       1 MOL         0.0000
     26 C26         3.6487   -3.8706   -3.9746 C.3       1 MOL         0.0000
     27 N1          2.9762   -3.0180   -4.9284 N.am      1 MOL         0.0000
     28 N2         -1.0008   -1.3248   -3.6097 N.4       1 MOL         0.0000
     29 O1          1.4456    1.1965   -2.0736 O.co2     1 MOL         0.0000
     30 O2          5.9159   -5.6293    0.3384 O.co2     1 MOL         0.0000
     31 O3          0.8203   -3.4204   -4.1755 O.2       1 MOL         0.0000
     32 O4          0.1279    1.5558   -0.2757 O.co2     1 MOL         0.0000
     33 O5          6.7932   -3.5397    0.6167 O.co2     1 MOL         0.0000
     34 O6          2.7215   -0.3064    0.6177 O.3       1 MOL         0.0000
     35 O7          2.8032   -3.1343    1.1661 O.3       1 MOL         0.0000
     36 H1          0.9901   -1.7211   -9.3944 H         1 MOL         0.0000
     37 H2         -0.3138    0.3098   -8.8197 H         1 MOL         0.0000
     38 H3          1.8696   -3.1789   -7.6057 H         1 MOL         0.0000
     39 H4         -0.7408    0.8822   -6.4528 H         1 MOL         0.0000
     40 H5         -0.8800   -3.5428   -1.3971 H         1 MOL         0.0000
     41 H6          0.8778   -4.4662    0.0638 H         1 MOL         0.0000
     42 H7          2.8057   -0.8695    2.5975 H         1 MOL         0.0000
     43 H8          4.3032   -0.2086    1.9113 H         1 MOL         0.0000
     44 H9          4.5128   -2.2591    0.4255 H         1 MOL         0.0000
     45 H10         4.4157   -1.8492   -2.1865 H         1 MOL         0.0000
     46 H11         6.0370   -1.5913   -2.8448 H         1 MOL         0.0000
     47 H12         4.6157   -1.2194   -3.8342 H         1 MOL         0.0000
     48 H13         4.3339   -5.3333   -5.4280 H         1 MOL         0.0000
     49 H14         4.1619   -5.9775   -3.7830 H         1 MOL         0.0000
     50 H15         2.7256   -5.6692   -4.7649 H         1 MOL         0.0000
     51 H16        -2.6787   -0.2912   -4.3757 H         1 MOL         0.0000
     52 H17        -2.0446   -1.6077   -5.4268 H         1 MOL         0.0000
     53 H18        -2.9732   -2.0122   -3.9387 H         1 MOL         0.0000
     54 H19         0.9582   -0.5618   -3.6393 H         1 MOL         0.0000
     55 H20        -0.2910    0.5735   -4.1695 H         1 MOL         0.0000
     56 H21        -2.2000   -1.3922   -1.9073 H         1 MOL         0.0000
     57 H22        -1.2836    0.1060   -2.1218 H         1 MOL         0.0000
     58 H23         5.7872   -4.6547    3.0184 H         1 MOL         0.0000
     59 H24         4.3045   -4.9323    2.1037 H         1 MOL         0.0000
     60 H25         5.6476   -2.2167    2.6202 H         1 MOL         0.0000
     61 H26         4.1859   -2.8353    3.3822 H         1 MOL         0.0000
     62 H27         5.6675   -3.3470   -4.5480 H         1 MOL         0.0000
     63 H28         5.5395   -3.9916   -2.9108 H         1 MOL         0.0000
     64 H29         3.0326   -3.8723   -3.0680 H         1 MOL         0.0000
     65 H30         3.5513   -2.5755   -5.6378 H         1 MOL         0.0000
     66 H31        -0.6472   -2.2946   -3.6529 H         1 MOL         0.0000
@<TRIPOS>BOND
     1    1    2 ar
     2    1    3 ar
     3    2    4 ar
     4    3    7 ar
     5    4    9 ar
     6    5    6 ar
     7    5   10 ar
     8    6   11 ar
     9    7    9 ar
    10    7   13 1
    11    8   10 ar
    12    8   12 ar
    13    8   14 1
    14    9   21 1
    15   10   22 1
    16   11   12 ar
    17   11   35 1
    18   12   34 1
    19   13   27 am
    20   13   31 2
    21   14   29 1
    22   14   32 2
    23   15   23 1
    24   15   30 1
    25   15   33 2
    26   16   17 1
    27   16   34 1
    28   17   24 1
    29   17   35 1
    30   18   25 1
    31   19   26 1
    32   20   28 1
    33   21   28 1
    34   22   28 1
    35   23   24 1
    36   25   26 1
    37   26   27 1
    38    1   36 1
    39    2   37 1
    40    3   38 1
    41    4   39 1
    42    5   40 1
    43    6   41 1
    44   16   42 1
    45   16   43 1
    46   17   44 1
    47   18   45 1
    48   18   46 1
    49   18   47 1
    50   19   48 1
    51   19   49 1
    52   19   50 1
    53   20   51 1
    54   20   52 1
    55   20   53 1
    56   21   54 1
    57   21   55 1
    58   22   56 1
    59   22   57 1
    60   23   58 1
    61   23   59 1
    62   24   60 1
    63   24   61 1
    64   25   62 1
    65   25   63 1
    66   26   64 1
    67   27   65 1
    68   28   66 1
