AVX38787_2
  -OEChem-04011315013D

 73 76  0     1  0  0  0  0  0999 V2000
    7.1776   -0.9650   -5.7951 C   0  0  0  0  0  0  0  0  0  0  0  0
    6.6211   -1.5123   -6.9511 C   0  0  0  0  0  0  0  0  0  0  0  0
    6.3675   -0.2853   -4.8853 C   0  0  0  0  0  0  0  0  0  0  0  0
    5.2545   -1.3799   -7.1974 C   0  0  0  0  0  0  0  0  0  0  0  0
   -0.1820    1.0250   -6.1539 C   0  0  0  0  0  0  0  0  0  0  0  0
   -0.7158    2.1828   -5.5877 C   0  0  0  0  0  0  0  0  0  0  0  0
    5.0010   -0.1529   -5.1317 C   0  0  0  0  0  0  0  0  0  0  0  0
   -0.1239   -0.0217   -3.9751 C   0  0  0  0  0  0  0  0  0  0  0  0
    4.4444   -0.7002   -6.2877 C   0  0  0  0  0  0  0  0  0  0  0  0
    0.1085   -0.0776   -5.3495 C   0  0  0  0  0  0  0  0  0  0  0  0
   -0.9616    2.2341   -4.2154 C   0  0  0  0  0  0  0  0  0  0  0  0
   -0.6456    1.1405   -3.4063 C   0  0  0  0  0  0  0  0  0  0  0  0
    4.1782    0.5622   -4.1655 C   0  0  0  0  0  0  0  0  0  0  0  0
    0.1937   -1.1878   -3.1256 C   0  0  0  0  0  0  0  0  0  0  0  0
   -4.6648    4.8013   -2.9718 C   0  0  0  0  0  0  0  0  0  0  0  0
    5.3303    5.6043   -0.8440 C   0  0  0  0  0  0  0  0  0  0  0  0
    6.1662    4.7756   -1.8144 C   0  0  0  0  0  0  0  0  0  0  0  0
    4.1710    4.7957   -0.2702 C   0  0  0  0  0  0  0  0  0  0  0  0
    5.3071    4.1664   -2.9200 C   0  0  0  0  0  0  0  0  0  0  0  0
    3.3085    4.1863   -1.3732 C   0  0  0  0  0  0  0  0  0  0  0  0
   -1.0358    2.4630   -1.5379 C   0  0  0  0  0  0  0  0  0  0  0  0
    4.1448    3.3446   -2.3465 C   0  0  0  0  0  0  0  0  0  0  0  0
   -2.0401    3.2140   -2.4021 C   0  0  1  0  0  0  0  0  0  0  0  0
    2.5616   -2.9229   -5.8698 C   0  0  0  0  0  0  0  0  0  0  0  0
    2.9780   -0.5722   -6.5780 C   0  0  0  0  0  0  0  0  0  0  0  0
    0.6722   -1.3049   -5.9890 C   0  0  0  0  0  0  0  0  0  0  0  0
   -3.2674    5.3855   -2.7334 C   0  0  0  0  0  0  0  0  0  0  0  0
    3.2700    2.7907   -3.4695 C   0  0  0  0  0  0  0  0  0  0  0  0
   -2.3373    4.5940   -1.8341 C   0  0  0  0  0  0  0  0  0  0  0  0
    4.0338    1.9406   -4.3543 N   0  0  0  0  0  0  0  0  0  0  0  0
    2.1268   -1.4859   -5.7336 N   0  3  1  0  0  0  0  0  0  0  0  0
   -0.7176   -2.0733   -2.9323 O   0  5  0  0  0  0  0  0  0  0  0  0
   -5.2028    5.0649   -4.0820 O   0  5  0  0  0  0  0  0  0  0  0  0
    3.6562   -0.0428   -3.2139 O   0  0  0  0  0  0  0  0  0  0  0  0
    1.3689   -1.2720   -2.6122 O   0  0  0  0  0  0  0  0  0  0  0  0
   -5.1057    4.1044   -2.0127 O   0  0  0  0  0  0  0  0  0  0  0  0
   -0.8333    1.1417   -2.0493 O   0  0  0  0  0  0  0  0  0  0  0  0
   -1.5063    3.3902   -3.7214 O   0  0  0  0  0  0  0  0  0  0  0  0
    8.2417   -1.0679   -5.6027 H   0  0  0  0  0  0  0  0  0  0  0  0
    7.2524   -2.0411   -7.6592 H   0  0  0  0  0  0  0  0  0  0  0  0
    6.8134    0.1376   -3.9887 H   0  0  0  0  0  0  0  0  0  0  0  0
    4.8309   -1.8105   -8.1009 H   0  0  0  0  0  0  0  0  0  0  0  0
   -0.0000    0.9902   -7.2249 H   0  0  0  0  0  0  0  0  0  0  0  0
   -0.9486    3.0330   -6.2230 H   0  0  0  0  0  0  0  0  0  0  0  0
    5.9652    5.9685   -0.0284 H   0  0  0  0  0  0  0  0  0  0  0  0
    4.9371    6.4869   -1.3635 H   0  0  0  0  0  0  0  0  0  0  0  0
    6.9464    5.4047   -2.2578 H   0  0  0  0  0  0  0  0  0  0  0  0
    6.6760    3.9743   -1.2653 H   0  0  0  0  0  0  0  0  0  0  0  0
    4.5646    3.9956    0.3689 H   0  0  0  0  0  0  0  0  0  0  0  0
    3.5540    5.4389    0.3676 H   0  0  0  0  0  0  0  0  0  0  0  0
    4.9171    4.9706   -3.5572 H   0  0  0  0  0  0  0  0  0  0  0  0
    5.9346    3.5327   -3.5581 H   0  0  0  0  0  0  0  0  0  0  0  0
    2.5257    3.5667   -0.9195 H   0  0  0  0  0  0  0  0  0  0  0  0
    2.7994    4.9917   -1.9182 H   0  0  0  0  0  0  0  0  0  0  0  0
   -0.0647    2.9730   -1.5019 H   0  0  0  0  0  0  0  0  0  0  0  0
   -1.4058    2.3638   -0.5118 H   0  0  0  0  0  0  0  0  0  0  0  0
    4.5558    2.4862   -1.8041 H   0  0  0  0  0  0  0  0  0  0  0  0
   -2.9776    2.6479   -2.4880 H   0  0  0  0  0  0  0  0  0  0  0  0
    2.3823   -3.2295   -6.9019 H   0  0  0  0  0  0  0  0  0  0  0  0
    3.6237   -2.9754   -5.6234 H   0  0  0  0  0  0  0  0  0  0  0  0
    1.9674   -3.5190   -5.1746 H   0  0  0  0  0  0  0  0  0  0  0  0
    2.6251    0.4478   -6.3916 H   0  0  0  0  0  0  0  0  0  0  0  0
    2.7591   -0.8153   -7.6233 H   0  0  0  0  0  0  0  0  0  0  0  0
    0.1775   -2.2130   -5.6214 H   0  0  0  0  0  0  0  0  0  0  0  0
    0.5493   -1.2821   -7.0794 H   0  0  0  0  0  0  0  0  0  0  0  0
   -3.4228    6.3681   -2.2704 H   0  0  0  0  0  0  0  0  0  0  0  0
   -2.7920    5.5609   -3.7066 H   0  0  0  0  0  0  0  0  0  0  0  0
    2.8525    3.6059   -4.0680 H   0  0  0  0  0  0  0  0  0  0  0  0
    2.4475    2.1950   -3.0628 H   0  0  0  0  0  0  0  0  0  0  0  0
   -2.7491    4.4696   -0.8340 H   0  0  0  0  0  0  0  0  0  0  0  0
   -1.3845    5.1146   -1.7405 H   0  0  0  0  0  0  0  0  0  0  0  0
    4.5336    2.3938   -5.1123 H   0  0  0  0  0  0  0  0  0  0  0  0
    2.3065   -1.2218   -4.7511 H   0  0  0  0  0  0  0  0  0  0  0  0
  1  2  1  0  0  0  0
  1  3  2  0  0  0  0
  2  4  2  0  0  0  0
  3  7  1  0  0  0  0
  4  9  1  0  0  0  0
  5  6  2  0  0  0  0
  5 10  1  0  0  0  0
  6 11  1  0  0  0  0
  7  9  2  0  0  0  0
  7 13  1  0  0  0  0
  8 10  2  0  0  0  0
  8 12  1  0  0  0  0
  8 14  1  0  0  0  0
  9 25  1  0  0  0  0
 10 26  1  0  0  0  0
 11 12  2  0  0  0  0
 11 38  1  0  0  0  0
 12 37  1  0  0  0  0
 13 30  1  0  0  0  0
 13 34  2  0  0  0  0
 14 32  1  0  0  0  0
 14 35  2  0  0  0  0
 15 27  1  0  0  0  0
 15 33  1  0  0  0  0
 15 36  2  0  0  0  0
 16 17  1  0  0  0  0
 16 18  1  0  0  0  0
 17 19  1  0  0  0  0
 18 20  1  0  0  0  0
 19 22  1  0  0  0  0
 20 22  1  0  0  0  0
 21 23  1  0  0  0  0
 21 37  1  0  0  0  0
 22 28  1  0  0  0  0
 23 29  1  0  0  0  0
 23 38  1  0  0  0  0
 24 31  1  0  0  0  0
 25 31  1  0  0  0  0
 26 31  1  0  0  0  0
 27 29  1  0  0  0  0
 28 30  1  0  0  0  0
  1 39  1  0  0  0  0
  2 40  1  0  0  0  0
  3 41  1  0  0  0  0
  4 42  1  0  0  0  0
  5 43  1  0  0  0  0
  6 44  1  0  0  0  0
 16 45  1  0  0  0  0
 16 46  1  0  0  0  0
 17 47  1  0  0  0  0
 17 48  1  0  0  0  0
 18 49  1  0  0  0  0
 18 50  1  0  0  0  0
 19 51  1  0  0  0  0
 19 52  1  0  0  0  0
 20 53  1  0  0  0  0
 20 54  1  0  0  0  0
 21 55  1  0  0  0  0
 21 56  1  0  0  0  0
 22 57  1  0  0  0  0
 23 58  1  0  0  0  0
 24 59  1  0  0  0  0
 24 60  1  0  0  0  0
 24 61  1  0  0  0  0
 25 62  1  0  0  0  0
 25 63  1  0  0  0  0
 26 64  1  0  0  0  0
 26 65  1  0  0  0  0
 27 66  1  0  0  0  0
 27 67  1  0  0  0  0
 28 68  1  0  0  0  0
 28 69  1  0  0  0  0
 29 70  1  0  0  0  0
 29 71  1  0  0  0  0
 30 72  1  0  0  0  0
 31 73  1  0  0  0  0
M  CHG  3  31   1  32  -1  33  -1
M  END
$$$$
