@<TRIPOS>MOLECULE
AVX38783_0
   68    71     0     0     0
SMALL
NO_CHARGES

@<TRIPOS>ATOM
      1 C1          7.2955   -2.8050    4.5084 C.ar      1 MOL         0.0000
      2 C2          7.2224   -1.5474    3.9095 C.ar      1 MOL         0.0000
      3 C3          0.1593   -4.0412    8.8239 C.2       1 MOL         0.0000
      4 C4          6.1579   -3.6087    4.5839 C.ar      1 MOL         0.0000
      5 C5          6.0117   -1.0934    3.3862 C.ar      1 MOL         0.0000
      6 C6          0.0258   -1.3822    2.6701 C.ar      1 MOL         0.0000
      7 C7         -1.0673   -1.9218    3.3485 C.ar      1 MOL         0.0000
      8 C8          0.8123   -4.9675    7.9761 C.2       1 MOL         0.0000
      9 C9          0.1105   -2.8555    8.1285 C.2       1 MOL         0.0000
     10 C10         4.9472   -3.1547    4.0607 C.ar      1 MOL         0.0000
     11 C11         0.3543   -3.4815    1.5163 C.ar      1 MOL         0.0000
     12 C12         4.8741   -1.8971    3.4618 C.ar      1 MOL         0.0000
     13 C13         0.7389   -2.1626    1.7595 C.ar      1 MOL         0.0000
     14 C14        -1.4438   -3.2449    3.1161 C.ar      1 MOL         0.0000
     15 C15        -0.7471   -4.0174    2.1842 C.ar      1 MOL         0.0000
     16 C16         1.1157   -4.2818    6.8229 C.2       1 MOL         0.0000
     17 C17         4.4994   -0.0115   -1.0708 C.2       1 MOL         0.0000
     18 C18         4.5840   -0.4702    0.1827 C.2       1 MOL         0.0000
     19 C19         3.7746   -4.0139    4.1536 C.2       1 MOL         0.0000
     20 C20         1.1062   -4.3016    0.5445 C.2       1 MOL         0.0000
     21 C21        -5.4384   -5.5535    6.4605 C.2       1 MOL         0.0000
     22 C22        -2.4039   -5.6354    2.3489 C.3       1 MOL         0.0000
     23 C23        -2.5926   -5.1556    3.7820 C.3       1 MOL         0.0000
     24 C24         3.5849   -1.3837    2.8914 C.3       1 MOL         0.0000
     25 C25         1.9102   -1.5568    1.0567 C.3       1 MOL         0.0000
     26 C26         1.7987   -4.6740    5.5447 C.3       1 MOL         0.0000
     27 C27         4.3294   -1.8898    0.5695 C.3       1 MOL         0.0000
     28 C28        -4.1191   -5.1662    5.7820 C.3       1 MOL         0.0000
     29 C29        -3.9544   -5.5606    4.3269 C.3       1 MOL         0.0000
     30 N1          2.9794   -3.8784    5.2962 N.am      1 MOL         0.0000
     31 N2          3.2198   -2.0313    1.5800 N.4       1 MOL         0.0000
     32 O1          0.7345   -4.2910   -0.6858 O.co2     1 MOL         0.0000
     33 O2         -5.5678   -5.2204    7.6703 O.co2     1 MOL         0.0000
     34 O3          3.5247   -4.8363    3.2562 O.2       1 MOL         0.0000
     35 O4          2.1030   -4.9945    0.9666 O.co2     1 MOL         0.0000
     36 O5         -6.2522   -6.1582    5.7041 O.co2     1 MOL         0.0000
     37 O6          0.6912   -2.9937    6.9078 O.3       1 MOL         0.0000
     38 O7         -1.0886   -5.3106    1.8880 O.3       1 MOL         0.0000
     39 O8         -2.5121   -3.7242    3.8275 O.3       1 MOL         0.0000
     40 H1          8.2382   -3.1591    4.9159 H         1 MOL         0.0000
     41 H2          8.1085   -0.9219    3.8511 H         1 MOL         0.0000
     42 H3         -0.2270   -4.2158    9.8176 H         1 MOL         0.0000
     43 H4          6.2277   -4.5863    5.0541 H         1 MOL         0.0000
     44 H5          5.9657   -0.1122    2.9212 H         1 MOL         0.0000
     45 H6          0.3171   -0.3529    2.8620 H         1 MOL         0.0000
     46 H7         -1.6099   -1.3103    4.0642 H         1 MOL         0.0000
     47 H8          1.0331   -6.0050    8.1830 H         1 MOL         0.0000
     48 H9         -0.2825   -1.8743    8.3510 H         1 MOL         0.0000
     49 H10         4.7011    1.0315   -1.2891 H         1 MOL         0.0000
     50 H11         4.2309   -0.6616   -1.8960 H         1 MOL         0.0000
     51 H12         4.8623    0.2223    0.9729 H         1 MOL         0.0000
     52 H13        -2.5132   -6.7233    2.2867 H         1 MOL         0.0000
     53 H14        -3.1327   -5.1809    1.6655 H         1 MOL         0.0000
     54 H15        -1.8062   -5.5602    4.4337 H         1 MOL         0.0000
     55 H16         2.7491   -1.5655    3.5755 H         1 MOL         0.0000
     56 H17         3.6360   -0.3053    2.7063 H         1 MOL         0.0000
     57 H18         1.9013   -1.7917   -0.0153 H         1 MOL         0.0000
     58 H19         1.9152   -0.4636    1.1537 H         1 MOL         0.0000
     59 H20         2.1015   -5.7263    5.5759 H         1 MOL         0.0000
     60 H21         1.1277   -4.5539    4.6877 H         1 MOL         0.0000
     61 H22         5.2229   -2.3216    1.0307 H         1 MOL         0.0000
     62 H23         4.0443   -2.5103   -0.2860 H         1 MOL         0.0000
     63 H24        -3.3251   -5.6629    6.3538 H         1 MOL         0.0000
     64 H25        -3.9708   -4.0854    5.8990 H         1 MOL         0.0000
     65 H26        -4.7205   -5.1129    3.6961 H         1 MOL         0.0000
     66 H27        -4.0304   -6.6430    4.2277 H         1 MOL         0.0000
     67 H28         3.2649   -3.2353    6.0274 H         1 MOL         0.0000
     68 H29         3.1315   -3.0426    1.7721 H         1 MOL         0.0000
@<TRIPOS>BOND
     1    1    2 ar
     2    1    4 ar
     3    2    5 ar
     4    3    8 1
     5    3    9 2
     6    4   10 ar
     7    5   12 ar
     8    6    7 ar
     9    6   13 ar
    10    7   14 ar
    11    8   16 2
    12    9   37 1
    13   10   12 ar
    14   10   19 1
    15   11   13 ar
    16   11   15 ar
    17   11   20 1
    18   12   24 1
    19   13   25 1
    20   14   15 ar
    21   14   39 1
    22   15   38 1
    23   16   26 1
    24   16   37 1
    25   17   18 2
    26   18   27 1
    27   19   30 am
    28   19   34 2
    29   20   32 1
    30   20   35 2
    31   21   28 1
    32   21   33 1
    33   21   36 2
    34   22   23 1
    35   22   38 1
    36   23   29 1
    37   23   39 1
    38   24   31 1
    39   25   31 1
    40   26   30 1
    41   27   31 1
    42   28   29 1
    43    1   40 1
    44    2   41 1
    45    3   42 1
    46    4   43 1
    47    5   44 1
    48    6   45 1
    49    7   46 1
    50    8   47 1
    51    9   48 1
    52   17   49 1
    53   17   50 1
    54   18   51 1
    55   22   52 1
    56   22   53 1
    57   23   54 1
    58   24   55 1
    59   24   56 1
    60   25   57 1
    61   25   58 1
    62   26   59 1
    63   26   60 1
    64   27   61 1
    65   27   62 1
    66   28   63 1
    67   28   64 1
    68   29   65 1
    69   29   66 1
    70   30   67 1
    71   31   68 1
