@<TRIPOS>MOLECULE
AVX38786_1
   71    74     0     0     0
SMALL
NO_CHARGES

@<TRIPOS>ATOM
      1 C1          1.1315   -4.9555    5.1679 C.ar      1 MOL         0.0000
      2 C2          0.5851   -5.0961    3.8923 C.ar      1 MOL         0.0000
      3 C3          2.3769   -4.3486    5.3302 C.ar      1 MOL         0.0000
      4 C4          1.2841   -4.6299    2.7789 C.ar      1 MOL         0.0000
      5 C5          1.2325    0.1703    2.7127 C.ar      1 MOL         0.0000
      6 C6          7.0078   -0.2753    3.7046 C.ar      1 MOL         0.0000
      7 C7          4.8914    0.7283    4.2969 C.ar      1 MOL         0.0000
      8 C8          0.9418    1.4878    3.0676 C.ar      1 MOL         0.0000
      9 C9          7.2209    0.7305    2.7619 C.ar      1 MOL         0.0000
     10 C10         5.1045    1.7341    3.3542 C.ar      1 MOL         0.0000
     11 C11         3.0759   -3.8823    4.2169 C.ar      1 MOL         0.0000
     12 C12         1.7187    0.8794    0.4529 C.ar      1 MOL         0.0000
     13 C13         5.8430   -0.2764    4.4721 C.ar      1 MOL         0.0000
     14 C14         2.5296   -4.0229    2.9412 C.ar      1 MOL         0.0000
     15 C15         1.6150   -0.1343    1.4059 C.ar      1 MOL         0.0000
     16 C16         1.0318    2.4998    2.1115 C.ar      1 MOL         0.0000
     17 C17         1.4414    2.1990    0.8106 C.ar      1 MOL         0.0000
     18 C18         6.2693    1.7352    2.5867 C.ar      1 MOL         0.0000
     19 C19         4.3747   -3.2531    4.4147 C.2       1 MOL         0.0000
     20 C20         2.1330    0.5542   -0.9273 C.2       1 MOL         0.0000
     21 C21        -0.8752    7.6936    3.4746 C.2       1 MOL         0.0000
     22 C22         1.6158    4.4745    0.3840 C.3       1 MOL         0.0000
     23 C23         0.4986    4.6512    1.4040 C.3       1 MOL         0.0000
     24 C24         4.3854   -1.5239    0.7699 C.3       1 MOL         0.0000
     25 C25         5.4644    3.7132    1.5401 C.3       1 MOL         0.0000
     26 C26         5.6137   -1.3585    5.4872 C.3       1 MOL         0.0000
     27 C27         3.2598   -3.5311    1.7264 C.3       1 MOL         0.0000
     28 C28         1.9102   -1.5568    1.0567 C.3       1 MOL         0.0000
     29 C29        -0.7035    6.2860    2.8914 C.3       1 MOL         0.0000
     30 C30         0.4600    6.0741    1.9420 C.3       1 MOL         0.0000
     31 N1          4.4077   -2.1075    5.2164 N.am      1 MOL         0.0000
     32 N2          3.2198   -2.0313    1.5800 N.4       1 MOL         0.0000
     33 O1          3.3855    0.5784   -1.2145 O.co2     1 MOL         0.0000
     34 O2         -1.8445    7.8609    4.2645 O.co2     1 MOL         0.0000
     35 O3          5.3891   -3.7192    3.8688 O.2       1 MOL         0.0000
     36 O4          1.2251    0.2598   -1.7880 O.co2     1 MOL         0.0000
     37 O5          0.0007    8.5228    3.0936 O.co2     1 MOL         0.0000
     38 O6          1.5811    3.1526   -0.1631 O.3       1 MOL         0.0000
     39 O7          0.7140    3.7699    2.5149 O.3       1 MOL         0.0000
     40 O8          6.4780    2.7172    1.6677 O.3       1 MOL         0.0000
     41 H1          0.5875   -5.3183    6.0354 H         1 MOL         0.0000
     42 H2         -0.3845   -5.5691    3.7665 H         1 MOL         0.0000
     43 H3          2.7924   -4.2459    6.3295 H         1 MOL         0.0000
     44 H4          0.8492   -4.7440    1.7895 H         1 MOL         0.0000
     45 H5          1.1531   -0.6135    3.4616 H         1 MOL         0.0000
     46 H6          7.7544   -1.0541    3.8343 H         1 MOL         0.0000
     47 H7          3.9808    0.7354    4.8904 H         1 MOL         0.0000
     48 H8          0.6339    1.7141    4.0847 H         1 MOL         0.0000
     49 H9          8.1305    0.7260    2.1671 H         1 MOL         0.0000
     50 H10         4.3597    2.5140    3.2227 H         1 MOL         0.0000
     51 H11         1.4958    5.1763   -0.4480 H         1 MOL         0.0000
     52 H12         2.6059    4.6399    0.8281 H         1 MOL         0.0000
     53 H13        -0.4754    4.4049    0.9596 H         1 MOL         0.0000
     54 H14         4.2862   -1.9202   -0.2423 H         1 MOL         0.0000
     55 H15         4.3430   -0.4330    0.7704 H         1 MOL         0.0000
     56 H16         5.3020   -1.8813    1.2432 H         1 MOL         0.0000
     57 H17         5.7564    4.4351    0.7735 H         1 MOL         0.0000
     58 H18         5.3270    4.2193    2.4989 H         1 MOL         0.0000
     59 H19         4.5283    3.2322    1.2467 H         1 MOL         0.0000
     60 H20         6.4529   -2.0626    5.4973 H         1 MOL         0.0000
     61 H21         5.5284   -0.9398    6.4955 H         1 MOL         0.0000
     62 H22         4.3170   -3.8159    1.7575 H         1 MOL         0.0000
     63 H23         2.8287   -3.9482    0.8099 H         1 MOL         0.0000
     64 H24         1.1498   -2.2364    1.4622 H         1 MOL         0.0000
     65 H25         1.9382   -1.7060   -0.0303 H         1 MOL         0.0000
     66 H26        -1.6272    6.0698    2.3400 H         1 MOL         0.0000
     67 H27        -0.6494    5.5693    3.7204 H         1 MOL         0.0000
     68 H28         1.4159    6.2840    2.4187 H         1 MOL         0.0000
     69 H29         0.3612    6.7387    1.0842 H         1 MOL         0.0000
     70 H30         3.5396   -1.7339    5.5859 H         1 MOL         0.0000
     71 H31         3.3376   -1.6429    2.5301 H         1 MOL         0.0000
@<TRIPOS>BOND
     1    1    2 ar
     2    1    3 ar
     3    2    4 ar
     4    3   11 ar
     5    4   14 ar
     6    5    8 ar
     7    5   15 ar
     8    6    9 ar
     9    6   13 ar
    10    7   10 ar
    11    7   13 ar
    12    8   16 ar
    13    9   18 ar
    14   10   18 ar
    15   11   14 ar
    16   11   19 1
    17   12   15 ar
    18   12   17 ar
    19   12   20 1
    20   13   26 1
    21   14   27 1
    22   15   28 1
    23   16   17 ar
    24   16   39 1
    25   17   38 1
    26   18   40 1
    27   19   31 am
    28   19   35 2
    29   20   33 1
    30   20   36 2
    31   21   29 1
    32   21   34 1
    33   21   37 2
    34   22   23 1
    35   22   38 1
    36   23   30 1
    37   23   39 1
    38   24   32 1
    39   25   40 1
    40   26   31 1
    41   27   32 1
    42   28   32 1
    43   29   30 1
    44    1   41 1
    45    2   42 1
    46    3   43 1
    47    4   44 1
    48    5   45 1
    49    6   46 1
    50    7   47 1
    51    8   48 1
    52    9   49 1
    53   10   50 1
    54   22   51 1
    55   22   52 1
    56   23   53 1
    57   24   54 1
    58   24   55 1
    59   24   56 1
    60   25   57 1
    61   25   58 1
    62   25   59 1
    63   26   60 1
    64   26   61 1
    65   27   62 1
    66   27   63 1
    67   28   64 1
    68   28   65 1
    69   29   66 1
    70   29   67 1
    71   30   68 1
    72   30   69 1
    73   31   70 1
    74   32   71 1
