@<TRIPOS>MOLECULE
AVX38705_1
   46    48     0     0     0
SMALL
NO_CHARGES

@<TRIPOS>ATOM
      1 C1          6.5031   -1.1708   -0.8153 C.ar      1 MOL         0.0000
      2 C2          5.8987   -0.5339   -1.8991 C.ar      1 MOL         0.0000
      3 C3          5.8085   -1.3133    0.3860 C.ar      1 MOL         0.0000
      4 C4          4.5997   -0.0393   -1.7816 C.ar      1 MOL         0.0000
      5 C5         -0.2754    1.5549    1.4041 C.ar      1 MOL         0.0000
      6 C6         -0.5791    1.9424    2.7114 C.ar      1 MOL         0.0000
      7 C7          4.5096   -0.8188    0.5034 C.ar      1 MOL         0.0000
      8 C8         -0.5300   -0.7932    1.9953 C.ar      1 MOL         0.0000
      9 C9          3.9051   -0.1818   -0.5804 C.ar      1 MOL         0.0000
     10 C10        -0.2510    0.1950    1.0481 C.ar      1 MOL         0.0000
     11 C11        -0.8507    0.9471    3.6276 C.ar      1 MOL         0.0000
     12 C12        -0.8269   -0.3840    3.2791 C.ar      1 MOL         0.0000
     13 C13         3.8073   -0.9803    1.7693 C.2       1 MOL         0.0000
     14 C14        -0.5120   -2.2232    1.6478 C.2       1 MOL         0.0000
     15 C15        -1.3363   -0.2308    5.3764 C.3       1 MOL         0.0000
     16 C16         3.3406    0.0191    4.0184 C.3       1 MOL         0.0000
     17 C17         1.5941   -1.5752   -1.7534 C.3       1 MOL         0.0000
     18 C18         2.5096    0.3600   -0.4816 C.3       1 MOL         0.0000
     19 C19         0.0793   -0.1698   -0.3635 C.3       1 MOL         0.0000
     20 N1          3.9542    0.0442    2.7101 N.am      1 MOL         0.0000
     21 N2          1.4540   -0.7156   -0.5229 N.4       1 MOL         0.0000
     22 O1         -1.5998   -2.7740    1.2330 O.co2     1 MOL         0.0000
     23 O2          3.1318   -2.0001    1.9882 O.2       1 MOL         0.0000
     24 O3          0.5908   -2.8771    1.7702 O.co2     1 MOL         0.0000
     25 O4         -1.1654    1.1327    4.9384 O.3       1 MOL         0.0000
     26 O5         -1.1235   -1.1985    4.3282 O.3       1 MOL         0.0000
     27 H1          7.5146   -1.5563   -0.9063 H         1 MOL         0.0000
     28 H2          6.4401   -0.4230   -2.8341 H         1 MOL         0.0000
     29 H3          6.2910   -1.8106    1.2235 H         1 MOL         0.0000
     30 H4          4.1379    0.4549   -2.6323 H         1 MOL         0.0000
     31 H5         -0.0574    2.3180    0.6607 H         1 MOL         0.0000
     32 H6         -0.5990    2.9898    2.9901 H         1 MOL         0.0000
     33 H7         -0.6265   -0.4304    6.1874 H         1 MOL         0.0000
     34 H8         -2.3551   -0.3503    5.7627 H         1 MOL         0.0000
     35 H9          2.3824    0.5447    3.9942 H         1 MOL         0.0000
     36 H10         3.9908    0.5063    4.7502 H         1 MOL         0.0000
     37 H11         3.1680   -1.0129    4.3352 H         1 MOL         0.0000
     38 H12         1.4020   -0.9457   -2.6241 H         1 MOL         0.0000
     39 H13         2.6118   -1.9700   -1.7711 H         1 MOL         0.0000
     40 H14         0.8615   -2.3815   -1.6828 H         1 MOL         0.0000
     41 H15         2.3632    0.9085    0.4551 H         1 MOL         0.0000
     42 H16         2.2922    1.0459   -1.3074 H         1 MOL         0.0000
     43 H17        -0.6053   -0.9346   -0.7511 H         1 MOL         0.0000
     44 H18         0.0116    0.7002   -1.0288 H         1 MOL         0.0000
     45 H19         4.5686    0.8249    2.5033 H         1 MOL         0.0000
     46 H20         1.6402   -1.3338    0.2838 H         1 MOL         0.0000
@<TRIPOS>BOND
     1    1    2 ar
     2    1    3 ar
     3    2    4 ar
     4    3    7 ar
     5    4    9 ar
     6    5    6 ar
     7    5   10 ar
     8    6   11 ar
     9    7    9 ar
    10    7   13 1
    11    8   10 ar
    12    8   12 ar
    13    8   14 1
    14    9   18 1
    15   10   19 1
    16   11   12 ar
    17   11   25 1
    18   12   26 1
    19   13   20 am
    20   13   23 2
    21   14   22 1
    22   14   24 2
    23   15   25 1
    24   15   26 1
    25   16   20 1
    26   17   21 1
    27   18   21 1
    28   19   21 1
    29    1   27 1
    30    2   28 1
    31    3   29 1
    32    4   30 1
    33    5   31 1
    34    6   32 1
    35   15   33 1
    36   15   34 1
    37   16   35 1
    38   16   36 1
    39   16   37 1
    40   17   38 1
    41   17   39 1
    42   17   40 1
    43   18   41 1
    44   18   42 1
    45   19   43 1
    46   19   44 1
    47   20   45 1
    48   21   46 1
