AVX38784_3
  -OEChem-04011315003D

 66 68  0     1  0  0  0  0  0999 V2000
    7.1225   -2.1197    4.8276 C   0  0  0  0  0  0  0  0  0  0  0  0
    7.4569   -1.8441    3.5018 C   0  0  0  0  0  0  0  0  0  0  0  0
    5.7995   -1.9988    5.2527 C   0  0  0  0  0  0  0  0  0  0  0  0
    6.4684   -1.4476    2.6011 C   0  0  0  0  0  0  0  0  0  0  0  0
    0.6033   -3.5877    1.6501 C   0  0  0  0  0  0  0  0  0  0  0  0
   -0.2485   -4.6424    1.3213 C   0  0  0  0  0  0  0  0  0  0  0  0
    4.8109   -1.6023    4.3521 C   0  0  0  0  0  0  0  0  0  0  0  0
    0.5160   -2.7967   -0.6329 C   0  0  0  0  0  0  0  0  0  0  0  0
    5.1454   -1.3266    3.0262 C   0  0  0  0  0  0  0  0  0  0  0  0
    0.9894   -2.6694    0.6732 C   0  0  0  0  0  0  0  0  0  0  0  0
   -0.7112   -4.7783    0.0121 C   0  0  0  0  0  0  0  0  0  0  0  0
   -0.3469   -3.8433   -0.9593 C   0  0  0  0  0  0  0  0  0  0  0  0
    3.4375   -1.4833    4.8226 C   0  0  0  0  0  0  0  0  0  0  0  0
    0.9196   -1.8170   -1.6623 C   0  0  0  0  0  0  0  0  0  0  0  0
   -3.5726   -9.5069   -1.3744 C   0  0  0  0  0  0  0  0  0  0  0  0
   -1.9182   -4.7791   -2.3895 C   0  0  0  0  0  0  0  0  0  0  0  0
   -1.6549   -6.0907   -1.6614 C   0  0  2  0  0  0  0  0  0  0  0  0
    1.3574    1.8907    4.1543 C   0  0  0  0  0  0  0  0  0  0  0  0
    1.6809   -0.3209    7.3347 C   0  0  0  0  0  0  0  0  0  0  0  0
    3.9388   -2.9292    0.6058 C   0  0  0  0  0  0  0  0  0  0  0  0
    4.1025   -0.8977    2.0366 C   0  0  0  0  0  0  0  0  0  0  0  0
    1.9102   -1.5568    1.0567 C   0  0  0  0  0  0  0  0  0  0  0  0
   -2.5090   -8.4144   -1.2133 C   0  0  0  0  0  0  0  0  0  0  0  0
   -2.7997   -7.0734   -1.8592 C   0  0  0  0  0  0  0  0  0  0  0  0
    1.3255    1.4934    5.6246 C   0  0  0  0  0  0  0  0  0  0  0  0
    1.7270    0.0303    5.8513 C   0  0  1  0  0  0  0  0  0  0  0  0
    3.0465   -0.2385    5.3265 N   0  0  0  0  0  0  0  0  0  0  0  0
    3.2198   -2.0313    1.5800 N   0  3  1  0  0  0  0  0  0  0  0  0
    0.1955   -0.7684   -1.8299 O   0  5  0  0  0  0  0  0  0  0  0  0
   -3.3236  -10.6187   -0.8329 O   0  5  0  0  0  0  0  0  0  0  0  0
    2.6735   -2.4627    4.7872 O   0  0  0  0  0  0  0  0  0  0  0  0
    1.9792   -2.0510   -2.3511 O   0  0  0  0  0  0  0  0  0  0  0  0
   -4.5913   -9.1455   -2.0314 O   0  0  0  0  0  0  0  0  0  0  0  0
   -0.7945   -3.9035   -2.2527 O   0  0  0  0  0  0  0  0  0  0  0  0
   -1.5279   -5.8455   -0.2539 O   0  0  0  0  0  0  0  0  0  0  0  0
    7.8919   -2.4287    5.5294 H   0  0  0  0  0  0  0  0  0  0  0  0
    8.4873   -1.9382    3.1714 H   0  0  0  0  0  0  0  0  0  0  0  0
    5.5518   -2.2154    6.2888 H   0  0  0  0  0  0  0  0  0  0  0  0
    6.7396   -1.2357    1.5702 H   0  0  0  0  0  0  0  0  0  0  0  0
    0.9650   -3.4929    2.6707 H   0  0  0  0  0  0  0  0  0  0  0  0
   -0.5351   -5.3593    2.0859 H   0  0  0  0  0  0  0  0  0  0  0  0
   -2.0688   -4.9534   -3.4601 H   0  0  0  0  0  0  0  0  0  0  0  0
   -2.8069   -4.2658   -2.0003 H   0  0  0  0  0  0  0  0  0  0  0  0
   -0.7194   -6.5481   -2.0116 H   0  0  0  0  0  0  0  0  0  0  0  0
    0.6882    1.2649    3.5560 H   0  0  0  0  0  0  0  0  0  0  0  0
    1.0357    2.9307    4.0387 H   0  0  0  0  0  0  0  0  0  0  0  0
    2.3694    1.8023    3.7465 H   0  0  0  0  0  0  0  0  0  0  0  0
    2.3603    0.3164    7.9100 H   0  0  0  0  0  0  0  0  0  0  0  0
    0.6703   -0.1993    7.7407 H   0  0  0  0  0  0  0  0  0  0  0  0
    1.9770   -1.3633    7.4966 H   0  0  0  0  0  0  0  0  0  0  0  0
    4.1510   -2.3457   -0.2920 H   0  0  0  0  0  0  0  0  0  0  0  0
    4.8614   -3.2674    1.0814 H   0  0  0  0  0  0  0  0  0  0  0  0
    3.2819   -3.7714    0.3802 H   0  0  0  0  0  0  0  0  0  0  0  0
    3.4410   -0.1362    2.4634 H   0  0  0  0  0  0  0  0  0  0  0  0
    4.5616   -0.4744    1.1366 H   0  0  0  0  0  0  0  0  0  0  0  0
    2.1352   -0.9080    0.2007 H   0  0  0  0  0  0  0  0  0  0  0  0
    1.4729   -0.9261    1.8413 H   0  0  0  0  0  0  0  0  0  0  0  0
   -1.5927   -8.8117   -1.6679 H   0  0  0  0  0  0  0  0  0  0  0  0
   -2.3049   -8.2815   -0.1434 H   0  0  0  0  0  0  0  0  0  0  0  0
   -3.7083   -6.6217   -1.4649 H   0  0  0  0  0  0  0  0  0  0  0  0
   -2.9295   -7.2023   -2.9333 H   0  0  0  0  0  0  0  0  0  0  0  0
    2.0110    2.1500    6.1740 H   0  0  0  0  0  0  0  0  0  0  0  0
    0.3186    1.6763    6.0200 H   0  0  0  0  0  0  0  0  0  0  0  0
    1.0358   -0.6273    5.3114 H   0  0  0  0  0  0  0  0  0  0  0  0
    3.7297    0.5091    5.3903 H   0  0  0  0  0  0  0  0  0  0  0  0
    3.0316   -2.6060    2.4177 H   0  0  0  0  0  0  0  0  0  0  0  0
  1  2  1  0  0  0  0
  1  3  2  0  0  0  0
  2  4  2  0  0  0  0
  3  7  1  0  0  0  0
  4  9  1  0  0  0  0
  5  6  2  0  0  0  0
  5 10  1  0  0  0  0
  6 11  1  0  0  0  0
  7  9  2  0  0  0  0
  7 13  1  0  0  0  0
  8 10  2  0  0  0  0
  8 12  1  0  0  0  0
  8 14  1  0  0  0  0
  9 21  1  0  0  0  0
 10 22  1  0  0  0  0
 11 12  2  0  0  0  0
 11 35  1  0  0  0  0
 12 34  1  0  0  0  0
 13 27  1  0  0  0  0
 13 31  2  0  0  0  0
 14 29  1  0  0  0  0
 14 32  2  0  0  0  0
 15 23  1  0  0  0  0
 15 30  1  0  0  0  0
 15 33  2  0  0  0  0
 16 17  1  0  0  0  0
 16 34  1  0  0  0  0
 17 24  1  0  0  0  0
 17 35  1  0  0  0  0
 18 25  1  0  0  0  0
 19 26  1  0  0  0  0
 20 28  1  0  0  0  0
 21 28  1  0  0  0  0
 22 28  1  0  0  0  0
 23 24  1  0  0  0  0
 25 26  1  0  0  0  0
 26 27  1  0  0  0  0
  1 36  1  0  0  0  0
  2 37  1  0  0  0  0
  3 38  1  0  0  0  0
  4 39  1  0  0  0  0
  5 40  1  0  0  0  0
  6 41  1  0  0  0  0
 16 42  1  0  0  0  0
 16 43  1  0  0  0  0
 17 44  1  0  0  0  0
 18 45  1  0  0  0  0
 18 46  1  0  0  0  0
 18 47  1  0  0  0  0
 19 48  1  0  0  0  0
 19 49  1  0  0  0  0
 19 50  1  0  0  0  0
 20 51  1  0  0  0  0
 20 52  1  0  0  0  0
 20 53  1  0  0  0  0
 21 54  1  0  0  0  0
 21 55  1  0  0  0  0
 22 56  1  0  0  0  0
 22 57  1  0  0  0  0
 23 58  1  0  0  0  0
 23 59  1  0  0  0  0
 24 60  1  0  0  0  0
 24 61  1  0  0  0  0
 25 62  1  0  0  0  0
 25 63  1  0  0  0  0
 26 64  1  0  0  0  0
 27 65  1  0  0  0  0
 28 66  1  0  0  0  0
M  CHG  3  28   1  29  -1  30  -1
M  END
$$$$
