AVX38781_2
  -OEChem-04011315003D

 77 80  0     1  0  0  0  0  0999 V2000
   -3.0172   -5.1797   -2.9721 C   0  0  0  0  0  0  0  0  0  0  0  0
   -2.0244   -4.3131   -3.4291 C   0  0  0  0  0  0  0  0  0  0  0  0
   -2.6748   -6.4497   -2.5077 C   0  0  0  0  0  0  0  0  0  0  0  0
   -0.6892   -4.7164   -3.4217 C   0  0  0  0  0  0  0  0  0  0  0  0
    3.6635   -8.8703   -2.9443 C   0  0  0  0  0  0  0  0  0  0  0  0
    3.8042  -10.2507   -3.0882 C   0  0  0  0  0  0  0  0  0  0  0  0
   -1.3395   -6.8530   -2.5004 C   0  0  0  0  0  0  0  0  0  0  0  0
    2.9946   -9.1719   -0.6405 C   0  0  0  0  0  0  0  0  0  0  0  0
   -0.3467   -5.9864   -2.9574 C   0  0  0  0  0  0  0  0  0  0  0  0
    3.2644   -8.3313   -1.7207 C   0  0  0  0  0  0  0  0  0  0  0  0
    3.5480  -11.0908   -2.0042 C   0  0  0  0  0  0  0  0  0  0  0  0
    3.1224  -10.5534   -0.7874 C   0  0  0  0  0  0  0  0  0  0  0  0
    3.2420   -3.1985   -1.0627 C   0  0  0  0  0  0  0  0  0  0  0  0
    2.2939   -3.9512   -1.6314 C   0  0  0  0  0  0  0  0  0  0  0  0
   -1.0098   -8.1847   -2.0109 C   0  0  0  0  0  0  0  0  0  0  0  0
    2.5634   -8.5979    0.6506 C   0  0  0  0  0  0  0  0  0  0  0  0
    6.2012  -14.9348   -1.8205 C   0  0  0  0  0  0  0  0  0  0  0  0
   -3.9206  -13.5571   -2.6797 C   0  0  0  0  0  0  0  0  0  0  0  0
   -4.2457  -12.1293   -3.1073 C   0  0  0  0  0  0  0  0  0  0  0  0
   -2.9346  -13.5834   -1.5159 C   0  0  0  0  0  0  0  0  0  0  0  0
   -2.9812  -11.3351   -3.4267 C   0  0  0  0  0  0  0  0  0  0  0  0
   -1.6680  -12.7916   -1.8325 C   0  0  0  0  0  0  0  0  0  0  0  0
    2.6546  -12.7045   -0.0485 C   0  0  0  0  0  0  0  0  0  0  0  0
   -1.9905  -11.3518   -2.2547 C   0  0  0  0  0  0  0  0  0  0  0  0
    3.7844  -13.1578   -0.9636 C   0  0  1  0  0  0  0  0  0  0  0  0
    1.0971   -6.3944   -2.9612 C   0  0  0  0  0  0  0  0  0  0  0  0
    3.1311   -6.8481   -1.5982 C   0  0  0  0  0  0  0  0  0  0  0  0
    1.5578   -5.0400   -0.9227 C   0  0  0  0  0  0  0  0  0  0  0  0
    4.7424  -15.0842   -2.2684 C   0  0  0  0  0  0  0  0  0  0  0  0
   -0.7130  -10.5970   -2.6175 C   0  0  0  0  0  0  0  0  0  0  0  0
    3.6747  -14.6407   -1.2868 C   0  0  0  0  0  0  0  0  0  0  0  0
   -0.9979   -9.2200   -2.9513 N   0  0  0  0  0  0  0  0  0  0  0  0
    1.7176   -6.3836   -1.5874 N   0  3  1  0  0  0  0  0  0  0  0  0
    3.4621   -8.2854    1.5147 O   0  5  0  0  0  0  0  0  0  0  0  0
    7.0504  -14.7273   -2.7300 O   0  5  0  0  0  0  0  0  0  0  0  0
   -0.7741   -8.3712   -0.8051 O   0  0  0  0  0  0  0  0  0  0  0  0
    1.3061   -8.4334    0.8605 O   0  0  0  0  0  0  0  0  0  0  0  0
    6.3716  -15.0271   -0.5706 O   0  0  0  0  0  0  0  0  0  0  0  0
    2.8245  -11.3275    0.3029 O   0  0  0  0  0  0  0  0  0  0  0  0
    3.7240  -12.4352   -2.2008 O   0  0  0  0  0  0  0  0  0  0  0  0
   -4.0573   -4.8661   -2.9775 H   0  0  0  0  0  0  0  0  0  0  0  0
   -2.2917   -3.3244   -3.7908 H   0  0  0  0  0  0  0  0  0  0  0  0
   -3.4579   -7.1162   -2.1553 H   0  0  0  0  0  0  0  0  0  0  0  0
    0.0767   -4.0332   -3.7795 H   0  0  0  0  0  0  0  0  0  0  0  0
    3.8718   -8.2219   -3.7915 H   0  0  0  0  0  0  0  0  0  0  0  0
    4.1252  -10.6613   -4.0416 H   0  0  0  0  0  0  0  0  0  0  0  0
    3.7380   -2.4184   -1.6299 H   0  0  0  0  0  0  0  0  0  0  0  0
    3.5382   -3.3438   -0.0299 H   0  0  0  0  0  0  0  0  0  0  0  0
    2.0304   -3.7610   -2.6686 H   0  0  0  0  0  0  0  0  0  0  0  0
   -4.8428  -14.0752   -2.3933 H   0  0  0  0  0  0  0  0  0  0  0  0
   -3.4956  -14.1044   -3.5300 H   0  0  0  0  0  0  0  0  0  0  0  0
   -4.9010  -12.1485   -3.9856 H   0  0  0  0  0  0  0  0  0  0  0  0
   -4.8003  -11.6252   -2.3062 H   0  0  0  0  0  0  0  0  0  0  0  0
   -3.4130  -13.1641   -0.6222 H   0  0  0  0  0  0  0  0  0  0  0  0
   -2.6718  -14.6209   -1.2800 H   0  0  0  0  0  0  0  0  0  0  0  0
   -2.5075  -11.7575   -4.3222 H   0  0  0  0  0  0  0  0  0  0  0  0
   -3.2550  -10.3016   -3.6707 H   0  0  0  0  0  0  0  0  0  0  0  0
   -1.0151  -12.7860   -0.9515 H   0  0  0  0  0  0  0  0  0  0  0  0
   -1.1159  -13.3007   -2.6331 H   0  0  0  0  0  0  0  0  0  0  0  0
    1.6718  -12.8221   -0.5224 H   0  0  0  0  0  0  0  0  0  0  0  0
    2.6546  -13.2821    0.8820 H   0  0  0  0  0  0  0  0  0  0  0  0
   -2.4434  -10.8300   -1.4046 H   0  0  0  0  0  0  0  0  0  0  0  0
    4.7611  -12.9589   -0.5016 H   0  0  0  0  0  0  0  0  0  0  0  0
    1.2207   -7.4093   -3.3541 H   0  0  0  0  0  0  0  0  0  0  0  0
    1.6969   -5.7206   -3.5826 H   0  0  0  0  0  0  0  0  0  0  0  0
    3.5858   -6.4788   -0.6701 H   0  0  0  0  0  0  0  0  0  0  0  0
    3.6211   -6.3305   -2.4328 H   0  0  0  0  0  0  0  0  0  0  0  0
    0.4845   -4.8265   -0.9138 H   0  0  0  0  0  0  0  0  0  0  0  0
    1.8962   -5.1682    0.1104 H   0  0  0  0  0  0  0  0  0  0  0  0
    4.5917  -16.1533   -2.4645 H   0  0  0  0  0  0  0  0  0  0  0  0
    4.6160  -14.5616   -3.2248 H   0  0  0  0  0  0  0  0  0  0  0  0
   -0.2287  -11.0572   -3.4840 H   0  0  0  0  0  0  0  0  0  0  0  0
   -0.0103  -10.5981   -1.7791 H   0  0  0  0  0  0  0  0  0  0  0  0
    3.7259  -15.1978   -0.3529 H   0  0  0  0  0  0  0  0  0  0  0  0
    2.6874  -14.8028   -1.7187 H   0  0  0  0  0  0  0  0  0  0  0  0
   -1.2598   -9.0226   -3.9116 H   0  0  0  0  0  0  0  0  0  0  0  0
    1.1732   -7.0532   -1.0194 H   0  0  0  0  0  0  0  0  0  0  0  0
  1  2  1  0  0  0  0
  1  3  2  0  0  0  0
  2  4  2  0  0  0  0
  3  7  1  0  0  0  0
  4  9  1  0  0  0  0
  5  6  2  0  0  0  0
  5 10  1  0  0  0  0
  6 11  1  0  0  0  0
  7  9  2  0  0  0  0
  7 15  1  0  0  0  0
  8 10  2  0  0  0  0
  8 12  1  0  0  0  0
  8 16  1  0  0  0  0
  9 26  1  0  0  0  0
 10 27  1  0  0  0  0
 11 12  2  0  0  0  0
 11 40  1  0  0  0  0
 12 39  1  0  0  0  0
 13 14  2  0  0  0  0
 14 28  1  0  0  0  0
 15 32  1  0  0  0  0
 15 36  2  0  0  0  0
 16 34  1  0  0  0  0
 16 37  2  0  0  0  0
 17 29  1  0  0  0  0
 17 35  1  0  0  0  0
 17 38  2  0  0  0  0
 18 19  1  0  0  0  0
 18 20  1  0  0  0  0
 19 21  1  0  0  0  0
 20 22  1  0  0  0  0
 21 24  1  0  0  0  0
 22 24  1  0  0  0  0
 23 25  1  0  0  0  0
 23 39  1  0  0  0  0
 24 30  1  0  0  0  0
 25 31  1  0  0  0  0
 25 40  1  0  0  0  0
 26 33  1  0  0  0  0
 27 33  1  0  0  0  0
 28 33  1  0  0  0  0
 29 31  1  0  0  0  0
 30 32  1  0  0  0  0
  1 41  1  0  0  0  0
  2 42  1  0  0  0  0
  3 43  1  0  0  0  0
  4 44  1  0  0  0  0
  5 45  1  0  0  0  0
  6 46  1  0  0  0  0
 13 47  1  0  0  0  0
 13 48  1  0  0  0  0
 14 49  1  0  0  0  0
 18 50  1  0  0  0  0
 18 51  1  0  0  0  0
 19 52  1  0  0  0  0
 19 53  1  0  0  0  0
 20 54  1  0  0  0  0
 20 55  1  0  0  0  0
 21 56  1  0  0  0  0
 21 57  1  0  0  0  0
 22 58  1  0  0  0  0
 22 59  1  0  0  0  0
 23 60  1  0  0  0  0
 23 61  1  0  0  0  0
 24 62  1  0  0  0  0
 25 63  1  0  0  0  0
 26 64  1  0  0  0  0
 26 65  1  0  0  0  0
 27 66  1  0  0  0  0
 27 67  1  0  0  0  0
 28 68  1  0  0  0  0
 28 69  1  0  0  0  0
 29 70  1  0  0  0  0
 29 71  1  0  0  0  0
 30 72  1  0  0  0  0
 30 73  1  0  0  0  0
 31 74  1  0  0  0  0
 31 75  1  0  0  0  0
 32 76  1  0  0  0  0
 33 77  1  0  0  0  0
M  CHG  3  33   1  34  -1  35  -1
M  END
$$$$
