AVX38747_1
  -OEChem-04011314573D

 70 73  0     1  0  0  0  0  0999 V2000
    1.8121    1.8090   -1.1916 C   0  0  0  0  0  0  0  0  0  0  0  0
    1.2445    1.0062   -2.1923 C   0  0  0  0  0  0  0  0  0  0  0  0
    1.4139    1.6723    0.1391 C   0  0  0  0  0  0  0  0  0  0  0  0
    0.2716    0.0548   -1.8762 C   0  0  0  0  0  0  0  0  0  0  0  0
   -3.5155   -2.9249    0.0660 C   0  0  0  0  0  0  0  0  0  0  0  0
   -4.4907   -3.7074    0.6847 C   0  0  0  0  0  0  0  0  0  0  0  0
   -1.7992   -4.4447    0.8346 C   0  0  0  0  0  0  0  0  0  0  0  0
    0.4574    0.7177    0.4451 C   0  0  0  0  0  0  0  0  0  0  0  0
   -0.1106   -0.0875   -0.5510 C   0  0  0  0  0  0  0  0  0  0  0  0
   -2.1712   -3.2900    0.1456 C   0  0  0  0  0  0  0  0  0  0  0  0
   -4.1180   -4.8546    1.3857 C   0  0  0  0  0  0  0  0  0  0  0  0
   -2.7754   -5.2351    1.4419 C   0  0  0  0  0  0  0  0  0  0  0  0
   -0.3758   -4.8329    0.9086 C   0  0  0  0  0  0  0  0  0  0  0  0
   -1.7701   -1.7970    3.6498 C   0  0  0  0  0  0  0  0  0  0  0  0
   -8.0774   -7.5521    4.4708 C   0  0  0  0  0  0  0  0  0  0  0  0
   -0.1388    0.4223    1.7852 C   0  0  0  0  0  0  0  0  0  0  0  0
   -3.4319   -7.2639    2.3599 C   0  0  0  0  0  0  0  0  0  0  0  0
   -1.1518   -1.0021    0.0354 C   0  0  2  0  0  0  0  0  0  0  0  0
   -0.7658   -0.9617    1.5347 C   0  0  2  0  0  0  0  0  0  0  0  0
   -4.6095   -6.5020    2.9535 C   0  0  2  0  0  0  0  0  0  0  0  0
   -1.1435   -2.4184   -0.5254 C   0  0  0  0  0  0  0  0  0  0  0  0
   -3.1245   -1.9619    4.3199 C   0  0  0  0  0  0  0  0  0  0  0  0
   -6.8857   -6.7068    4.0058 C   0  0  0  0  0  0  0  0  0  0  0  0
   -5.7438   -7.4431    3.3319 C   0  0  0  0  0  0  0  0  0  0  0  0
   -3.2014   -3.1584    5.2671 C   0  0  0  0  0  0  0  0  0  0  0  0
   -4.5771   -3.2907    5.9299 C   0  0  0  0  0  0  0  0  0  0  0  0
   -4.6140   -4.4830    6.8910 C   0  0  0  0  0  0  0  0  0  0  0  0
   -5.9571   -4.6579    7.5889 C   0  0  0  0  0  0  0  0  0  0  0  0
   -1.8889   -1.2126    2.3971 N   0  0  0  0  0  0  0  0  0  0  0  0
   -5.9223   -5.8192    8.5087 N   0  3  0  0  0  0  0  0  0  0  0  0
    0.1009   -5.5972   -0.0082 O   0  5  0  0  0  0  0  0  0  0  0  0
   -9.0234   -6.9316    5.0290 O   0  5  0  0  0  0  0  0  0  0  0  0
    0.3312   -4.3917    1.8871 O   0  0  0  0  0  0  0  0  0  0  0  0
   -0.7165   -2.1628    4.1635 O   0  0  0  0  0  0  0  0  0  0  0  0
   -7.9662   -8.7868    4.2201 O   0  0  0  0  0  0  0  0  0  0  0  0
   -2.3507   -6.3674    2.0856 O   0  0  0  0  0  0  0  0  0  0  0  0
   -5.1183   -5.5702    1.9892 O   0  0  0  0  0  0  0  0  0  0  0  0
    2.5634    2.5477   -1.4572 H   0  0  0  0  0  0  0  0  0  0  0  0
    1.5604    1.1315   -3.2244 H   0  0  0  0  0  0  0  0  0  0  0  0
    1.8458    2.3010    0.9103 H   0  0  0  0  0  0  0  0  0  0  0  0
   -0.1719   -0.5499   -2.6597 H   0  0  0  0  0  0  0  0  0  0  0  0
   -3.8133   -2.0288   -0.4722 H   0  0  0  0  0  0  0  0  0  0  0  0
   -5.5340   -3.4094    0.6271 H   0  0  0  0  0  0  0  0  0  0  0  0
    0.6167    0.3767    2.5755 H   0  0  0  0  0  0  0  0  0  0  0  0
   -0.8902    1.1782    2.0386 H   0  0  0  0  0  0  0  0  0  0  0  0
   -3.0622   -8.0165    3.0644 H   0  0  0  0  0  0  0  0  0  0  0  0
   -3.7030   -7.7754    1.4274 H   0  0  0  0  0  0  0  0  0  0  0  0
   -2.1407   -0.5507   -0.1204 H   0  0  0  0  0  0  0  0  0  0  0  0
   -0.0171   -1.7371    1.7532 H   0  0  0  0  0  0  0  0  0  0  0  0
   -4.2972   -5.9349    3.8411 H   0  0  0  0  0  0  0  0  0  0  0  0
   -0.1470   -2.8572   -0.4016 H   0  0  0  0  0  0  0  0  0  0  0  0
   -1.3308   -2.3878   -1.6049 H   0  0  0  0  0  0  0  0  0  0  0  0
   -3.3807   -1.0389    4.8530 H   0  0  0  0  0  0  0  0  0  0  0  0
   -3.8621   -2.0962    3.5191 H   0  0  0  0  0  0  0  0  0  0  0  0
   -6.4854   -6.2232    4.9058 H   0  0  0  0  0  0  0  0  0  0  0  0
   -7.2583   -5.9088    3.3514 H   0  0  0  0  0  0  0  0  0  0  0  0
   -6.0704   -7.9618    2.4323 H   0  0  0  0  0  0  0  0  0  0  0  0
   -5.3305   -8.1853    4.0143 H   0  0  0  0  0  0  0  0  0  0  0  0
   -2.9973   -4.0693    4.6910 H   0  0  0  0  0  0  0  0  0  0  0  0
   -2.4225   -3.0861    6.0356 H   0  0  0  0  0  0  0  0  0  0  0  0
   -5.3438   -3.4205    5.1565 H   0  0  0  0  0  0  0  0  0  0  0  0
   -4.8157   -2.3685    6.4698 H   0  0  0  0  0  0  0  0  0  0  0  0
   -4.4003   -5.4007    6.3293 H   0  0  0  0  0  0  0  0  0  0  0  0
   -3.8177   -4.3782    7.6384 H   0  0  0  0  0  0  0  0  0  0  0  0
   -6.2297   -3.7827    8.1858 H   0  0  0  0  0  0  0  0  0  0  0  0
   -6.7491   -4.8611    6.8620 H   0  0  0  0  0  0  0  0  0  0  0  0
   -2.8149   -0.9491    2.0731 H   0  0  0  0  0  0  0  0  0  0  0  0
   -4.9583   -6.1303    8.6734 H   0  0  0  0  0  0  0  0  0  0  0  0
   -6.4468   -6.6117    8.1210 H   0  0  0  0  0  0  0  0  0  0  0  0
   -6.3361   -5.5822    9.4175 H   0  0  0  0  0  0  0  0  0  0  0  0
  1  2  1  0  0  0  0
  1  3  2  0  0  0  0
  2  4  2  0  0  0  0
  3  8  1  0  0  0  0
  4  9  1  0  0  0  0
  5  6  2  0  0  0  0
  5 10  1  0  0  0  0
  6 11  1  0  0  0  0
  7 10  2  0  0  0  0
  7 12  1  0  0  0  0
  7 13  1  0  0  0  0
  8  9  2  0  0  0  0
  8 16  1  0  0  0  0
  9 18  1  0  0  0  0
 10 21  1  0  0  0  0
 11 12  2  0  0  0  0
 11 37  1  0  0  0  0
 12 36  1  0  0  0  0
 13 31  1  0  0  0  0
 13 33  2  0  0  0  0
 14 22  1  0  0  0  0
 14 29  1  0  0  0  0
 14 34  2  0  0  0  0
 15 23  1  0  0  0  0
 15 32  1  0  0  0  0
 15 35  2  0  0  0  0
 16 19  1  0  0  0  0
 17 20  1  0  0  0  0
 17 36  1  0  0  0  0
 18 19  1  0  0  0  0
 18 21  1  0  0  0  0
 19 29  1  0  0  0  0
 20 24  1  0  0  0  0
 20 37  1  0  0  0  0
 22 25  1  0  0  0  0
 23 24  1  0  0  0  0
 25 26  1  0  0  0  0
 26 27  1  0  0  0  0
 27 28  1  0  0  0  0
 28 30  1  0  0  0  0
  1 38  1  0  0  0  0
  2 39  1  0  0  0  0
  3 40  1  0  0  0  0
  4 41  1  0  0  0  0
  5 42  1  0  0  0  0
  6 43  1  0  0  0  0
 16 44  1  0  0  0  0
 16 45  1  0  0  0  0
 17 46  1  0  0  0  0
 17 47  1  0  0  0  0
 18 48  1  0  0  0  0
 19 49  1  0  0  0  0
 20 50  1  0  0  0  0
 21 51  1  0  0  0  0
 21 52  1  0  0  0  0
 22 53  1  0  0  0  0
 22 54  1  0  0  0  0
 23 55  1  0  0  0  0
 23 56  1  0  0  0  0
 24 57  1  0  0  0  0
 24 58  1  0  0  0  0
 25 59  1  0  0  0  0
 25 60  1  0  0  0  0
 26 61  1  0  0  0  0
 26 62  1  0  0  0  0
 27 63  1  0  0  0  0
 27 64  1  0  0  0  0
 28 65  1  0  0  0  0
 28 66  1  0  0  0  0
 29 67  1  0  0  0  0
 30 68  1  0  0  0  0
 30 69  1  0  0  0  0
 30 70  1  0  0  0  0
M  CHG  3  30   1  31  -1  32  -1
M  END
$$$$
