AVX38779_4
  -OEChem-04011314593D

 70 72  0     1  0  0  0  0  0999 V2000
    2.4707    2.3504   -3.2322 C   0  0  0  0  0  0  0  0  0  0  0  0
    1.6052    2.2235   -4.3187 C   0  0  0  0  0  0  0  0  0  0  0  0
    2.6867    1.2657   -2.3821 C   0  0  0  0  0  0  0  0  0  0  0  0
    0.9556    1.0120   -4.5551 C   0  0  0  0  0  0  0  0  0  0  0  0
   -3.2512   -1.9004   -1.0767 C   0  0  0  0  0  0  0  0  0  0  0  0
   -4.5948   -1.8159   -0.7109 C   0  0  0  0  0  0  0  0  0  0  0  0
    2.0371    0.0542   -2.6185 C   0  0  0  0  0  0  0  0  0  0  0  0
   -3.4112    0.2432   -2.1837 C   0  0  0  0  0  0  0  0  0  0  0  0
    1.1715   -0.0727   -3.7050 C   0  0  0  0  0  0  0  0  0  0  0  0
   -2.6589   -0.8698   -1.8075 C   0  0  0  0  0  0  0  0  0  0  0  0
   -5.3438   -0.6966   -1.0748 C   0  0  0  0  0  0  0  0  0  0  0  0
   -4.7582    0.3222   -1.8295 C   0  0  0  0  0  0  0  0  0  0  0  0
   -0.9645   -4.0306   -5.9120 C   0  0  0  0  0  0  0  0  0  0  0  0
   -1.5536   -2.9212   -5.4526 C   0  0  0  0  0  0  0  0  0  0  0  0
    2.2800   -1.0621   -1.7149 C   0  0  0  0  0  0  0  0  0  0  0  0
   -2.7827    1.3278   -2.9653 C   0  0  0  0  0  0  0  0  0  0  0  0
   -8.6360    0.5551    1.9983 C   0  0  0  0  0  0  0  0  0  0  0  0
   -6.8648    1.2509   -2.1334 C   0  0  0  0  0  0  0  0  0  0  0  0
   -7.2151    0.6528   -0.7773 C   0  0  1  0  0  0  0  0  0  0  0  0
    3.6470   -0.3083    1.9921 C   0  0  0  0  0  0  0  0  0  0  0  0
    0.9343   -2.7874    0.7247 C   0  0  0  0  0  0  0  0  0  0  0  0
    0.4594   -1.3638   -3.9824 C   0  0  0  0  0  0  0  0  0  0  0  0
   -1.2157   -0.9880   -2.1764 C   0  0  0  0  0  0  0  0  0  0  0  0
   -1.7059   -2.5979   -4.0028 C   0  0  0  0  0  0  0  0  0  0  0  0
   -9.0797   -0.1484    0.7102 C   0  0  0  0  0  0  0  0  0  0  0  0
   -8.7211    0.5280   -0.5991 C   0  0  0  0  0  0  0  0  0  0  0  0
    2.4360   -1.2320    2.0164 C   0  0  0  0  0  0  0  0  0  0  0  0
    2.1530   -1.8733    0.6518 C   0  0  2  0  0  0  0  0  0  0  0  0
    1.9498   -0.8708   -0.3692 N   0  0  0  0  0  0  0  0  0  0  0  0
   -1.0008   -1.3248   -3.6097 N   0  3  2  0  0  0  0  0  0  0  0  0
   -2.2297    2.3003   -2.3324 O   0  5  0  0  0  0  0  0  0  0  0  0
   -8.3865   -0.1873    2.9873 O   0  5  0  0  0  0  0  0  0  0  0  0
    2.7781   -2.1183   -2.1397 O   0  0  0  0  0  0  0  0  0  0  0  0
   -2.8133    1.2578   -4.2484 O   0  0  0  0  0  0  0  0  0  0  0  0
   -8.5620    1.8141    1.9022 O   0  0  0  0  0  0  0  0  0  0  0  0
   -5.4491    1.4300   -2.2445 O   0  0  0  0  0  0  0  0  0  0  0  0
   -6.6517   -0.6615   -0.6684 O   0  0  0  0  0  0  0  0  0  0  0  0
    2.9770    3.2936   -3.0477 H   0  0  0  0  0  0  0  0  0  0  0  0
    1.4372    3.0685   -4.9800 H   0  0  0  0  0  0  0  0  0  0  0  0
    3.3627    1.3777   -1.5383 H   0  0  0  0  0  0  0  0  0  0  0  0
    0.2837    0.9236   -5.4047 H   0  0  0  0  0  0  0  0  0  0  0  0
   -2.6725   -2.7723   -0.7833 H   0  0  0  0  0  0  0  0  0  0  0  0
   -5.0453   -2.6183   -0.1331 H   0  0  0  0  0  0  0  0  0  0  0  0
   -0.8804   -4.2067   -6.9788 H   0  0  0  0  0  0  0  0  0  0  0  0
   -0.5577   -4.7772   -5.2391 H   0  0  0  0  0  0  0  0  0  0  0  0
   -1.9403   -2.2018   -6.1698 H   0  0  0  0  0  0  0  0  0  0  0  0
   -7.1990    0.6124   -2.9611 H   0  0  0  0  0  0  0  0  0  0  0  0
   -7.3297    2.2351   -2.2542 H   0  0  0  0  0  0  0  0  0  0  0  0
   -6.8037    1.2669    0.0353 H   0  0  0  0  0  0  0  0  0  0  0  0
    3.5200    0.4990    1.2643 H   0  0  0  0  0  0  0  0  0  0  0  0
    3.7916    0.1482    2.9765 H   0  0  0  0  0  0  0  0  0  0  0  0
    4.5569   -0.8617    1.7387 H   0  0  0  0  0  0  0  0  0  0  0  0
    0.0443   -2.2306    1.0353 H   0  0  0  0  0  0  0  0  0  0  0  0
    0.7270   -3.2515   -0.2461 H   0  0  0  0  0  0  0  0  0  0  0  0
    1.0970   -3.5949    1.4471 H   0  0  0  0  0  0  0  0  0  0  0  0
    0.5058   -1.6209   -5.0460 H   0  0  0  0  0  0  0  0  0  0  0  0
    0.9058   -2.1905   -3.4194 H   0  0  0  0  0  0  0  0  0  0  0  0
   -0.6760   -0.0500   -1.9941 H   0  0  0  0  0  0  0  0  0  0  0  0
   -0.7156   -1.7732   -1.5950 H   0  0  0  0  0  0  0  0  0  0  0  0
   -1.2697   -3.3932   -3.3907 H   0  0  0  0  0  0  0  0  0  0  0  0
   -2.7534   -2.4690   -3.7121 H   0  0  0  0  0  0  0  0  0  0  0  0
  -10.1737   -0.2168    0.7616 H   0  0  0  0  0  0  0  0  0  0  0  0
   -8.6930   -1.1751    0.7226 H   0  0  0  0  0  0  0  0  0  0  0  0
   -9.1569    1.5228   -0.6742 H   0  0  0  0  0  0  0  0  0  0  0  0
   -9.0950   -0.0643   -1.4339 H   0  0  0  0  0  0  0  0  0  0  0  0
    2.6170   -2.0182    2.7594 H   0  0  0  0  0  0  0  0  0  0  0  0
    1.5620   -0.6628    2.3567 H   0  0  0  0  0  0  0  0  0  0  0  0
    3.0204   -2.4659    0.3386 H   0  0  0  0  0  0  0  0  0  0  0  0
    1.6047    0.0339   -0.0656 H   0  0  0  0  0  0  0  0  0  0  0  0
   -1.4233   -0.5712   -4.1762 H   0  0  0  0  0  0  0  0  0  0  0  0
  1  2  1  0  0  0  0
  1  3  2  0  0  0  0
  2  4  2  0  0  0  0
  3  7  1  0  0  0  0
  4  9  1  0  0  0  0
  5  6  2  0  0  0  0
  5 10  1  0  0  0  0
  6 11  1  0  0  0  0
  7  9  2  0  0  0  0
  7 15  1  0  0  0  0
  8 10  2  0  0  0  0
  8 12  1  0  0  0  0
  8 16  1  0  0  0  0
  9 22  1  0  0  0  0
 10 23  1  0  0  0  0
 11 12  2  0  0  0  0
 11 37  1  0  0  0  0
 12 36  1  0  0  0  0
 13 14  2  0  0  0  0
 14 24  1  0  0  0  0
 15 29  1  0  0  0  0
 15 33  2  0  0  0  0
 16 31  1  0  0  0  0
 16 34  2  0  0  0  0
 17 25  1  0  0  0  0
 17 32  1  0  0  0  0
 17 35  2  0  0  0  0
 18 19  1  0  0  0  0
 18 36  1  0  0  0  0
 19 26  1  0  0  0  0
 19 37  1  0  0  0  0
 20 27  1  0  0  0  0
 21 28  1  0  0  0  0
 22 30  1  0  0  0  0
 23 30  1  0  0  0  0
 24 30  1  0  0  0  0
 25 26  1  0  0  0  0
 27 28  1  0  0  0  0
 28 29  1  0  0  0  0
  1 38  1  0  0  0  0
  2 39  1  0  0  0  0
  3 40  1  0  0  0  0
  4 41  1  0  0  0  0
  5 42  1  0  0  0  0
  6 43  1  0  0  0  0
 13 44  1  0  0  0  0
 13 45  1  0  0  0  0
 14 46  1  0  0  0  0
 18 47  1  0  0  0  0
 18 48  1  0  0  0  0
 19 49  1  0  0  0  0
 20 50  1  0  0  0  0
 20 51  1  0  0  0  0
 20 52  1  0  0  0  0
 21 53  1  0  0  0  0
 21 54  1  0  0  0  0
 21 55  1  0  0  0  0
 22 56  1  0  0  0  0
 22 57  1  0  0  0  0
 23 58  1  0  0  0  0
 23 59  1  0  0  0  0
 24 60  1  0  0  0  0
 24 61  1  0  0  0  0
 25 62  1  0  0  0  0
 25 63  1  0  0  0  0
 26 64  1  0  0  0  0
 26 65  1  0  0  0  0
 27 66  1  0  0  0  0
 27 67  1  0  0  0  0
 28 68  1  0  0  0  0
 29 69  1  0  0  0  0
 30 70  1  0  0  0  0
M  CHG  3  30   1  31  -1  32  -1
M  END
$$$$
