AVX38753_0
  -OEChem-04011314583D

 71 74  0     1  0  0  0  0  0999 V2000
    4.4668    2.8316   -0.5916 C   0  0  0  0  0  0  0  0  0  0  0  0
    0.6478   -2.0553    5.9452 C   0  0  0  0  0  0  0  0  0  0  0  0
    4.9040    2.9880    0.7237 C   0  0  0  0  0  0  0  0  0  0  0  0
    3.1105    2.6444   -0.8581 C   0  0  0  0  0  0  0  0  0  0  0  0
    1.2956   -3.1322    5.3401 C   0  0  0  0  0  0  0  0  0  0  0  0
    0.9535   -0.7505    5.5579 C   0  0  0  0  0  0  0  0  0  0  0  0
    3.9849    2.9572    1.7725 C   0  0  0  0  0  0  0  0  0  0  0  0
    2.1914    2.6135    0.1907 C   0  0  0  0  0  0  0  0  0  0  0  0
    2.2492   -2.9045    4.3479 C   0  0  0  0  0  0  0  0  0  0  0  0
    0.9561   -3.8019    0.5730 C   0  0  0  0  0  0  0  0  0  0  0  0
    0.3626   -4.7277   -0.2853 C   0  0  0  0  0  0  0  0  0  0  0  0
    1.9070   -0.5228    4.5657 C   0  0  0  0  0  0  0  0  0  0  0  0
    0.9739   -2.1591   -1.2009 C   0  0  0  0  0  0  0  0  0  0  0  0
    2.6286    2.7699    1.5060 C   0  0  0  0  0  0  0  0  0  0  0  0
    2.5549   -1.5997    3.9607 C   0  0  0  0  0  0  0  0  0  0  0  0
    1.2664   -2.5212    0.1142 C   0  0  0  0  0  0  0  0  0  0  0  0
    0.0825   -4.3706   -1.6046 C   0  0  0  0  0  0  0  0  0  0  0  0
    0.3678   -3.0800   -2.0558 C   0  0  0  0  0  0  0  0  0  0  0  0
    6.7308   -2.3937    1.0458 C   0  0  0  0  0  0  0  0  0  0  0  0
    5.4765   -2.8079    0.8355 C   0  0  0  0  0  0  0  0  0  0  0  0
    2.2076    0.8496    4.1809 C   0  0  0  0  0  0  0  0  0  0  0  0
    1.2955   -0.7992   -1.6801 C   0  0  0  0  0  0  0  0  0  0  0  0
   -1.6544   -8.4340   -5.2022 C   0  0  0  0  0  0  0  0  0  0  0  0
   -0.8279   -3.5378   -3.9925 C   0  0  0  0  0  0  0  0  0  0  0  0
   -0.4023   -4.9867   -3.7952 C   0  0  2  0  0  0  0  0  0  0  0  0
    1.6388    2.7363    2.6344 C   0  0  0  0  0  0  0  0  0  0  0  0
    3.5849   -1.3837    2.8914 C   0  0  0  0  0  0  0  0  0  0  0  0
    1.9102   -1.5568    1.0567 C   0  0  0  0  0  0  0  0  0  0  0  0
    4.3294   -1.8898    0.5695 C   0  0  0  0  0  0  0  0  0  0  0  0
   -0.8428   -7.3777   -4.4431 C   0  0  0  0  0  0  0  0  0  0  0  0
   -1.3099   -5.9395   -4.5594 C   0  0  0  0  0  0  0  0  0  0  0  0
    1.4452    1.3980    3.1444 N   0  0  0  0  0  0  0  0  0  0  0  0
    3.2198   -2.0313    1.5800 N   0  3  1  0  0  0  0  0  0  0  0  0
    0.4082    0.1222   -1.5546 O   0  5  0  0  0  0  0  0  0  0  0  0
   -1.2600   -9.6278   -5.0988 O   0  5  0  0  0  0  0  0  0  0  0  0
    3.1182    1.4768    4.7481 O   0  0  0  0  0  0  0  0  0  0  0  0
    2.4500   -0.5896   -2.2045 O   0  0  0  0  0  0  0  0  0  0  0  0
   -2.6439   -7.9689   -5.8382 O   0  0  0  0  0  0  0  0  0  0  0  0
    0.0862   -2.6592   -3.3288 O   0  0  0  0  0  0  0  0  0  0  0  0
   -0.4814   -5.3292   -2.4047 O   0  0  0  0  0  0  0  0  0  0  0  0
    5.1824    2.8570   -1.4082 H   0  0  0  0  0  0  0  0  0  0  0  0
   -0.0950   -2.2321    6.7178 H   0  0  0  0  0  0  0  0  0  0  0  0
    5.9599    3.1349    0.9313 H   0  0  0  0  0  0  0  0  0  0  0  0
    2.7696    2.5237   -1.8821 H   0  0  0  0  0  0  0  0  0  0  0  0
    1.0574   -4.1479    5.6423 H   0  0  0  0  0  0  0  0  0  0  0  0
    0.4424    0.0802    6.0379 H   0  0  0  0  0  0  0  0  0  0  0  0
    4.3347    3.0797    2.7942 H   0  0  0  0  0  0  0  0  0  0  0  0
    1.1366    2.4670   -0.0265 H   0  0  0  0  0  0  0  0  0  0  0  0
    2.7478   -3.7507    3.8826 H   0  0  0  0  0  0  0  0  0  0  0  0
    1.1776   -4.0901    1.5973 H   0  0  0  0  0  0  0  0  0  0  0  0
    0.1346   -5.7264    0.0772 H   0  0  0  0  0  0  0  0  0  0  0  0
    7.5230   -3.1113    1.2295 H   0  0  0  0  0  0  0  0  0  0  0  0
    6.9894   -1.3407    1.0379 H   0  0  0  0  0  0  0  0  0  0  0  0
    5.2715   -3.8752    0.8487 H   0  0  0  0  0  0  0  0  0  0  0  0
   -0.8228   -3.2734   -5.0552 H   0  0  0  0  0  0  0  0  0  0  0  0
   -1.8357   -3.3499   -3.6003 H   0  0  0  0  0  0  0  0  0  0  0  0
    0.6361   -5.1343   -4.1222 H   0  0  0  0  0  0  0  0  0  0  0  0
    1.9769    3.3676    3.4635 H   0  0  0  0  0  0  0  0  0  0  0  0
    0.6634    3.1164    2.3130 H   0  0  0  0  0  0  0  0  0  0  0  0
    3.7256   -0.3168    2.6870 H   0  0  0  0  0  0  0  0  0  0  0  0
    4.5550   -1.7975    3.1873 H   0  0  0  0  0  0  0  0  0  0  0  0
    2.1012   -0.5898    0.5741 H   0  0  0  0  0  0  0  0  0  0  0  0
    1.2765   -1.3676    1.9326 H   0  0  0  0  0  0  0  0  0  0  0  0
    3.8871   -2.1113   -0.4067 H   0  0  0  0  0  0  0  0  0  0  0  0
    4.6258   -0.8362    0.5869 H   0  0  0  0  0  0  0  0  0  0  0  0
    0.1771   -7.4304   -4.8445 H   0  0  0  0  0  0  0  0  0  0  0  0
   -0.7878   -7.6722   -3.3875 H   0  0  0  0  0  0  0  0  0  0  0  0
   -2.3259   -5.8118   -4.1900 H   0  0  0  0  0  0  0  0  0  0  0  0
   -1.2927   -5.6300   -5.6041 H   0  0  0  0  0  0  0  0  0  0  0  0
    0.7567    0.8198    2.6739 H   0  0  0  0  0  0  0  0  0  0  0  0
    3.1315   -3.0426    1.7721 H   0  0  0  0  0  0  0  0  0  0  0  0
  1  3  1  0  0  0  0
  1  4  2  0  0  0  0
  2  5  1  0  0  0  0
  2  6  2  0  0  0  0
  3  7  2  0  0  0  0
  4  8  1  0  0  0  0
  5  9  2  0  0  0  0
  6 12  1  0  0  0  0
  7 14  1  0  0  0  0
  8 14  2  0  0  0  0
  9 15  1  0  0  0  0
 10 11  2  0  0  0  0
 10 16  1  0  0  0  0
 11 17  1  0  0  0  0
 12 15  2  0  0  0  0
 12 21  1  0  0  0  0
 13 16  2  0  0  0  0
 13 18  1  0  0  0  0
 13 22  1  0  0  0  0
 14 26  1  0  0  0  0
 15 27  1  0  0  0  0
 16 28  1  0  0  0  0
 17 18  2  0  0  0  0
 17 40  1  0  0  0  0
 18 39  1  0  0  0  0
 19 20  2  0  0  0  0
 20 29  1  0  0  0  0
 21 32  1  0  0  0  0
 21 36  2  0  0  0  0
 22 34  1  0  0  0  0
 22 37  2  0  0  0  0
 23 30  1  0  0  0  0
 23 35  1  0  0  0  0
 23 38  2  0  0  0  0
 24 25  1  0  0  0  0
 24 39  1  0  0  0  0
 25 31  1  0  0  0  0
 25 40  1  0  0  0  0
 26 32  1  0  0  0  0
 27 33  1  0  0  0  0
 28 33  1  0  0  0  0
 29 33  1  0  0  0  0
 30 31  1  0  0  0  0
  1 41  1  0  0  0  0
  2 42  1  0  0  0  0
  3 43  1  0  0  0  0
  4 44  1  0  0  0  0
  5 45  1  0  0  0  0
  6 46  1  0  0  0  0
  7 47  1  0  0  0  0
  8 48  1  0  0  0  0
  9 49  1  0  0  0  0
 10 50  1  0  0  0  0
 11 51  1  0  0  0  0
 19 52  1  0  0  0  0
 19 53  1  0  0  0  0
 20 54  1  0  0  0  0
 24 55  1  0  0  0  0
 24 56  1  0  0  0  0
 25 57  1  0  0  0  0
 26 58  1  0  0  0  0
 26 59  1  0  0  0  0
 27 60  1  0  0  0  0
 27 61  1  0  0  0  0
 28 62  1  0  0  0  0
 28 63  1  0  0  0  0
 29 64  1  0  0  0  0
 29 65  1  0  0  0  0
 30 66  1  0  0  0  0
 30 67  1  0  0  0  0
 31 68  1  0  0  0  0
 31 69  1  0  0  0  0
 32 70  1  0  0  0  0
 33 71  1  0  0  0  0
M  CHG  3  33   1  34  -1  35  -1
M  END
$$$$
