AVX38743_2
  -OEChem-04011314573D

 47 50  0     1  0  0  0  0  0999 V2000
   -1.7017    4.5341    0.7733 C   0  0  0  0  0  0  0  0  0  0  0  0
   -2.6518    4.5580    1.8042 C   0  0  0  0  0  0  0  0  0  0  0  0
   -1.1331    3.3276    0.3569 C   0  0  0  0  0  0  0  0  0  0  0  0
   -0.3020   -1.7261   -1.2528 C   0  0  0  0  0  0  0  0  0  0  0  0
   -3.0452    3.3757    2.4326 C   0  0  0  0  0  0  0  0  0  0  0  0
    0.0112   -3.0685   -1.4676 C   0  0  0  0  0  0  0  0  0  0  0  0
   -1.5307    2.1547    0.9836 C   0  0  0  0  0  0  0  0  0  0  0  0
    0.2425   -1.0462   -0.1627 C   0  0  0  0  0  0  0  0  0  0  0  0
    1.0932   -1.7097    0.7217 C   0  0  0  0  0  0  0  0  0  0  0  0
   -2.4821    2.1807    2.0082 C   0  0  0  0  0  0  0  0  0  0  0  0
    0.8723   -3.7291   -0.5910 C   0  0  0  0  0  0  0  0  0  0  0  0
    1.3955   -3.0559    0.5152 C   0  0  0  0  0  0  0  0  0  0  0  0
   -1.1258    0.7700    0.7563 C   0  0  0  0  0  0  0  0  0  0  0  0
   -0.1048    0.3577    0.0208 C   0  0  0  0  0  0  0  0  0  0  0  0
    1.6672   -0.9981    1.8845 C   0  0  0  0  0  0  0  0  0  0  0  0
    2.0403   -5.5506    4.4146 C   0  0  0  0  0  0  0  0  0  0  0  0
   -2.7315    0.8174    2.5835 C   0  0  0  0  0  0  0  0  0  0  0  0
    2.2907   -5.5081   -0.1269 C   0  0  0  0  0  0  0  0  0  0  0  0
   -2.0463   -0.1121    1.5665 C   0  0  1  0  0  0  0  0  0  0  0  0
    2.1777   -5.0885    1.3327 C   0  0  1  0  0  0  0  0  0  0  0  0
    3.2755   -5.1582    3.5955 C   0  0  0  0  0  0  0  0  0  0  0  0
    3.3286   -5.6428    2.1594 C   0  0  0  0  0  0  0  0  0  0  0  0
    2.7937   -0.3982    1.7404 O   0  5  0  0  0  0  0  0  0  0  0  0
    1.6859   -4.7455    5.3188 O   0  5  0  0  0  0  0  0  0  0  0  0
    1.0162   -1.0089    2.9916 O   0  0  0  0  0  0  0  0  0  0  0  0
    1.5141   -6.6467    4.0660 O   0  0  0  0  0  0  0  0  0  0  0  0
    1.1574   -5.0406   -0.8656 O   0  0  0  0  0  0  0  0  0  0  0  0
    2.2195   -3.6582    1.4292 O   0  0  0  0  0  0  0  0  0  0  0  0
   -3.0237   -0.6714    0.6932 O   0  0  0  0  0  0  0  0  0  0  0  0
   -1.4054    5.4632    0.2941 H   0  0  0  0  0  0  0  0  0  0  0  0
   -3.0810    5.5060    2.1172 H   0  0  0  0  0  0  0  0  0  0  0  0
   -0.4007    3.3247   -0.4438 H   0  0  0  0  0  0  0  0  0  0  0  0
   -0.9696   -1.2230   -1.9485 H   0  0  0  0  0  0  0  0  0  0  0  0
   -3.7725    3.3973    3.2373 H   0  0  0  0  0  0  0  0  0  0  0  0
   -0.4102   -3.5881   -2.3239 H   0  0  0  0  0  0  0  0  0  0  0  0
    0.5333    1.0822   -0.4546 H   0  0  0  0  0  0  0  0  0  0  0  0
   -2.2427    0.7498    3.5619 H   0  0  0  0  0  0  0  0  0  0  0  0
   -3.8027    0.6165    2.6828 H   0  0  0  0  0  0  0  0  0  0  0  0
    3.1992   -5.1111   -0.5980 H   0  0  0  0  0  0  0  0  0  0  0  0
    2.3121   -6.5993   -0.2161 H   0  0  0  0  0  0  0  0  0  0  0  0
   -1.5169   -0.9313    2.0648 H   0  0  0  0  0  0  0  0  0  0  0  0
    1.2260   -5.4301    1.7619 H   0  0  0  0  0  0  0  0  0  0  0  0
    4.1388   -5.5833    4.1229 H   0  0  0  0  0  0  0  0  0  0  0  0
    3.3843   -4.0669    3.6295 H   0  0  0  0  0  0  0  0  0  0  0  0
    3.3008   -6.7293    2.0967 H   0  0  0  0  0  0  0  0  0  0  0  0
    4.2523   -5.3046    1.6904 H   0  0  0  0  0  0  0  0  0  0  0  0
   -3.5966   -1.2299    1.2412 H   0  0  0  0  0  0  0  0  0  0  0  0
  1  2  1  0  0  0  0
  1  3  2  0  0  0  0
  2  5  2  0  0  0  0
  3  7  1  0  0  0  0
  4  6  2  0  0  0  0
  4  8  1  0  0  0  0
  5 10  1  0  0  0  0
  6 11  1  0  0  0  0
  7 10  2  0  0  0  0
  7 13  1  0  0  0  0
  8  9  2  0  0  0  0
  8 14  1  0  0  0  0
  9 12  1  0  0  0  0
  9 15  1  0  0  0  0
 10 17  1  0  0  0  0
 11 12  2  0  0  0  0
 11 27  1  0  0  0  0
 12 28  1  0  0  0  0
 13 14  2  0  0  0  0
 13 19  1  0  0  0  0
 15 23  1  0  0  0  0
 15 25  2  0  0  0  0
 16 21  1  0  0  0  0
 16 24  1  0  0  0  0
 16 26  2  0  0  0  0
 17 19  1  0  0  0  0
 18 20  1  0  0  0  0
 18 27  1  0  0  0  0
 19 29  1  0  0  0  0
 20 22  1  0  0  0  0
 20 28  1  0  0  0  0
 21 22  1  0  0  0  0
  1 30  1  0  0  0  0
  2 31  1  0  0  0  0
  3 32  1  0  0  0  0
  4 33  1  0  0  0  0
  5 34  1  0  0  0  0
  6 35  1  0  0  0  0
 14 36  1  0  0  0  0
 17 37  1  0  0  0  0
 17 38  1  0  0  0  0
 18 39  1  0  0  0  0
 18 40  1  0  0  0  0
 19 41  1  0  0  0  0
 20 42  1  0  0  0  0
 21 43  1  0  0  0  0
 21 44  1  0  0  0  0
 22 45  1  0  0  0  0
 22 46  1  0  0  0  0
 29 47  1  0  0  0  0
M  CHG  2  23  -1  24  -1
M  END
$$$$
