@<TRIPOS>MOLECULE
AVX38742_2
   47    50     0     0     0
SMALL
NO_CHARGES

@<TRIPOS>ATOM
      1 C1          3.1918    2.5159    2.7165 C.ar      1 MOL         0.0000
      2 C2          3.3076    2.4866    4.1150 C.ar      1 MOL         0.0000
      3 C3          2.8077    1.3753    2.0066 C.ar      1 MOL         0.0000
      4 C4          0.9303    0.0616   -0.5572 C.ar      1 MOL         0.0000
      5 C5          3.0418    1.3157    4.8279 C.ar      1 MOL         0.0000
      6 C6          1.0149    0.8804   -1.6836 C.ar      1 MOL         0.0000
      7 C7          2.5445    0.2148    2.7178 C.ar      1 MOL         0.0000
      8 C8          2.0374   -0.6827   -0.1485 C.ar      1 MOL         0.0000
      9 C9          3.2357   -0.6019   -0.8584 C.ar      1 MOL         0.0000
     10 C10         2.6609    0.1845    4.1220 C.ar      1 MOL         0.0000
     11 C11         2.2088    0.9508   -2.4020 C.ar      1 MOL         0.0000
     12 C12         3.3251    0.2272   -1.9768 C.ar      1 MOL         0.0000
     13 C13         2.1318   -1.1115    2.2645 C.2       1 MOL         0.0000
     14 C14         1.9952   -1.9813    3.4711 C.2       1 MOL         0.0000
     15 C15         1.9041   -1.5313    1.0296 C.2       1 MOL         0.0000
     16 C16         4.4163   -1.3809   -0.4252 C.2       1 MOL         0.0000
     17 C17         2.2209    3.7367   -7.3732 C.2       1 MOL         0.0000
     18 C18         2.3339   -1.1656    4.7064 C.3       1 MOL         0.0000
     19 C19         4.6158    1.3962   -3.5122 C.3       1 MOL         0.0000
     20 C20         3.3513    1.4892   -4.3561 C.3       1 MOL         0.0000
     21 C21         2.2296    2.6638   -6.2779 C.3       1 MOL         0.0000
     22 C22         3.4455    2.6178   -5.3724 C.3       1 MOL         0.0000
     23 N1          1.6514   -3.2201    3.5114 N.2       1 MOL         0.0000
     24 O1          5.2337   -0.8425    0.4064 O.co2     1 MOL         0.0000
     25 O2          1.2054    3.7691   -8.1208 O.co2     1 MOL         0.0000
     26 O3          4.5765   -2.5641   -0.8983 O.co2     1 MOL         0.0000
     27 O4          3.2465    4.4770   -7.3817 O.co2     1 MOL         0.0000
     28 O5          4.5336    0.2805   -2.6198 O.3       1 MOL         0.0000
     29 O6          2.2239    1.7559   -3.5104 O.3       1 MOL         0.0000
     30 O7          1.6527   -3.6379    4.8449 O.3       1 MOL         0.0000
     31 H1          3.4033    3.4373    2.1808 H         1 MOL         0.0000
     32 H2          3.6070    3.3857    4.6474 H         1 MOL         0.0000
     33 H3          2.7216    1.4130    0.9259 H         1 MOL         0.0000
     34 H4         -0.0090    0.0123   -0.0112 H         1 MOL         0.0000
     35 H5          3.1339    1.2972    5.9087 H         1 MOL         0.0000
     36 H6          0.1456    1.4501   -2.0006 H         1 MOL         0.0000
     37 H7          1.5754   -2.5426    0.8650 H         1 MOL         0.0000
     38 H8          3.1981   -1.6015    5.2151 H         1 MOL         0.0000
     39 H9          1.4656   -1.1154    5.3688 H         1 MOL         0.0000
     40 H10         5.4953    1.2443   -4.1467 H         1 MOL         0.0000
     41 H11         4.7789    2.3040   -2.9173 H         1 MOL         0.0000
     42 H12         3.1653    0.5436   -4.8823 H         1 MOL         0.0000
     43 H13         2.1630    1.6988   -6.7960 H         1 MOL         0.0000
     44 H14         1.3168    2.7699   -5.6785 H         1 MOL         0.0000
     45 H15         3.5840    3.5525   -4.8318 H         1 MOL         0.0000
     46 H16         4.3410    2.4400   -5.9672 H         1 MOL         0.0000
     47 H17         1.3842   -4.5685    4.7598 H         1 MOL         0.0000
@<TRIPOS>BOND
     1    1    2 ar
     2    1    3 ar
     3    2    5 ar
     4    3    7 ar
     5    4    6 ar
     6    4    8 ar
     7    5   10 ar
     8    6   11 ar
     9    7   10 ar
    10    7   13 1
    11    8    9 ar
    12    8   15 1
    13    9   12 ar
    14    9   16 1
    15   10   18 1
    16   11   12 ar
    17   11   29 1
    18   12   28 1
    19   13   14 1
    20   13   15 2
    21   14   18 1
    22   14   23 2
    23   16   24 1
    24   16   26 2
    25   17   21 1
    26   17   25 1
    27   17   27 2
    28   19   20 1
    29   19   28 1
    30   20   22 1
    31   20   29 1
    32   21   22 1
    33   23   30 1
    34    1   31 1
    35    2   32 1
    36    3   33 1
    37    4   34 1
    38    5   35 1
    39    6   36 1
    40   15   37 1
    41   18   38 1
    42   18   39 1
    43   19   40 1
    44   19   41 1
    45   20   42 1
    46   21   43 1
    47   21   44 1
    48   22   45 1
    49   22   46 1
    50   30   47 1
