AVX38753_3
  -OEChem-04011314593D

 71 74  0     1  0  0  0  0  0999 V2000
   -6.1074    0.0448   -5.9344 C   0  0  0  0  0  0  0  0  0  0  0  0
    2.1922    2.5319   -4.4558 C   0  0  0  0  0  0  0  0  0  0  0  0
   -5.2171   -1.0258   -6.0165 C   0  0  0  0  0  0  0  0  0  0  0  0
   -5.7309    1.3027   -6.4051 C   0  0  0  0  0  0  0  0  0  0  0  0
    2.4639    1.7723   -3.3179 C   0  0  0  0  0  0  0  0  0  0  0  0
    1.3524    2.0260   -5.4480 C   0  0  0  0  0  0  0  0  0  0  0  0
   -3.9502   -0.8385   -6.5691 C   0  0  0  0  0  0  0  0  0  0  0  0
   -4.4639    1.4900   -6.9577 C   0  0  0  0  0  0  0  0  0  0  0  0
    1.8960    0.5067   -3.1723 C   0  0  0  0  0  0  0  0  0  0  0  0
   -3.2512   -1.9004   -1.0767 C   0  0  0  0  0  0  0  0  0  0  0  0
   -4.5948   -1.8159   -0.7109 C   0  0  0  0  0  0  0  0  0  0  0  0
    0.7845    0.7603   -5.3024 C   0  0  0  0  0  0  0  0  0  0  0  0
   -3.4112    0.2432   -2.1837 C   0  0  0  0  0  0  0  0  0  0  0  0
   -3.5735    0.4194   -7.0397 C   0  0  0  0  0  0  0  0  0  0  0  0
    1.0562    0.0006   -4.1645 C   0  0  0  0  0  0  0  0  0  0  0  0
   -2.6589   -0.8698   -1.8075 C   0  0  0  0  0  0  0  0  0  0  0  0
   -5.3438   -0.6966   -1.0748 C   0  0  0  0  0  0  0  0  0  0  0  0
   -4.7582    0.3222   -1.8295 C   0  0  0  0  0  0  0  0  0  0  0  0
   -0.6786   -4.8716   -3.8546 C   0  0  0  0  0  0  0  0  0  0  0  0
   -1.2017   -3.7925   -3.2623 C   0  0  0  0  0  0  0  0  0  0  0  0
   -0.0882    0.2558   -6.3539 C   0  0  0  0  0  0  0  0  0  0  0  0
   -2.7827    1.3278   -2.9653 C   0  0  0  0  0  0  0  0  0  0  0  0
   -8.6360    0.5551    1.9983 C   0  0  0  0  0  0  0  0  0  0  0  0
   -6.8648    1.2509   -2.1334 C   0  0  0  0  0  0  0  0  0  0  0  0
   -7.2151    0.6528   -0.7773 C   0  0  1  0  0  0  0  0  0  0  0  0
   -2.2099    0.6218   -7.6344 C   0  0  0  0  0  0  0  0  0  0  0  0
    0.4594   -1.3638   -3.9824 C   0  0  0  0  0  0  0  0  0  0  0  0
   -1.2157   -0.9880   -2.1764 C   0  0  0  0  0  0  0  0  0  0  0  0
   -1.7059   -2.5979   -4.0028 C   0  0  0  0  0  0  0  0  0  0  0  0
   -9.0797   -0.1484    0.7102 C   0  0  0  0  0  0  0  0  0  0  0  0
   -8.7211    0.5280   -0.5991 C   0  0  0  0  0  0  0  0  0  0  0  0
   -1.2360    1.0033   -6.6370 N   0  0  0  0  0  0  0  0  0  0  0  0
   -1.0008   -1.3248   -3.6097 N   0  3  2  0  0  0  0  0  0  0  0  0
   -2.2297    2.3003   -2.3324 O   0  5  0  0  0  0  0  0  0  0  0  0
   -8.3865   -0.1873    2.9873 O   0  5  0  0  0  0  0  0  0  0  0  0
    0.1849   -0.8033   -6.9437 O   0  0  0  0  0  0  0  0  0  0  0  0
   -2.8133    1.2578   -4.2484 O   0  0  0  0  0  0  0  0  0  0  0  0
   -8.5620    1.8141    1.9022 O   0  0  0  0  0  0  0  0  0  0  0  0
   -5.4491    1.4300   -2.2445 O   0  0  0  0  0  0  0  0  0  0  0  0
   -6.6517   -0.6615   -0.6684 O   0  0  0  0  0  0  0  0  0  0  0  0
   -7.0944   -0.1015   -5.5054 H   0  0  0  0  0  0  0  0  0  0  0  0
    2.6341    3.5177   -4.5696 H   0  0  0  0  0  0  0  0  0  0  0  0
   -5.5106   -2.0056   -5.6510 H   0  0  0  0  0  0  0  0  0  0  0  0
   -6.4242    2.1362   -6.3424 H   0  0  0  0  0  0  0  0  0  0  0  0
    3.1181    2.1667   -2.5458 H   0  0  0  0  0  0  0  0  0  0  0  0
    1.1493    2.6273   -6.3305 H   0  0  0  0  0  0  0  0  0  0  0  0
   -3.2630   -1.6784   -6.6287 H   0  0  0  0  0  0  0  0  0  0  0  0
   -4.1791    2.4736   -7.3217 H   0  0  0  0  0  0  0  0  0  0  0  0
    2.1138   -0.0768   -2.2816 H   0  0  0  0  0  0  0  0  0  0  0  0
   -2.6725   -2.7723   -0.7833 H   0  0  0  0  0  0  0  0  0  0  0  0
   -5.0453   -2.6183   -0.1331 H   0  0  0  0  0  0  0  0  0  0  0  0
   -0.3334   -5.7111   -3.2610 H   0  0  0  0  0  0  0  0  0  0  0  0
   -0.5865   -4.9385   -4.9329 H   0  0  0  0  0  0  0  0  0  0  0  0
   -1.2762   -3.7783   -2.1781 H   0  0  0  0  0  0  0  0  0  0  0  0
   -7.1990    0.6124   -2.9611 H   0  0  0  0  0  0  0  0  0  0  0  0
   -7.3297    2.2351   -2.2542 H   0  0  0  0  0  0  0  0  0  0  0  0
   -6.8037    1.2669    0.0353 H   0  0  0  0  0  0  0  0  0  0  0  0
   -1.8580   -0.2975   -8.1151 H   0  0  0  0  0  0  0  0  0  0  0  0
   -2.2276    1.4034   -8.4011 H   0  0  0  0  0  0  0  0  0  0  0  0
    0.5337   -1.9544   -4.9018 H   0  0  0  0  0  0  0  0  0  0  0  0
    0.9721   -1.9169   -3.1881 H   0  0  0  0  0  0  0  0  0  0  0  0
   -0.6760   -0.0500   -1.9941 H   0  0  0  0  0  0  0  0  0  0  0  0
   -0.7156   -1.7732   -1.5950 H   0  0  0  0  0  0  0  0  0  0  0  0
   -2.7674   -2.4409   -3.7881 H   0  0  0  0  0  0  0  0  0  0  0  0
   -1.5800   -2.6948   -5.0858 H   0  0  0  0  0  0  0  0  0  0  0  0
  -10.1737   -0.2168    0.7616 H   0  0  0  0  0  0  0  0  0  0  0  0
   -8.6930   -1.1751    0.7226 H   0  0  0  0  0  0  0  0  0  0  0  0
   -9.1569    1.5228   -0.6742 H   0  0  0  0  0  0  0  0  0  0  0  0
   -9.0950   -0.0643   -1.4339 H   0  0  0  0  0  0  0  0  0  0  0  0
   -1.4428    1.8269   -6.0814 H   0  0  0  0  0  0  0  0  0  0  0  0
   -1.4233   -0.5712   -4.1762 H   0  0  0  0  0  0  0  0  0  0  0  0
  1  3  1  0  0  0  0
  1  4  2  0  0  0  0
  2  5  1  0  0  0  0
  2  6  2  0  0  0  0
  3  7  2  0  0  0  0
  4  8  1  0  0  0  0
  5  9  2  0  0  0  0
  6 12  1  0  0  0  0
  7 14  1  0  0  0  0
  8 14  2  0  0  0  0
  9 15  1  0  0  0  0
 10 11  2  0  0  0  0
 10 16  1  0  0  0  0
 11 17  1  0  0  0  0
 12 15  2  0  0  0  0
 12 21  1  0  0  0  0
 13 16  2  0  0  0  0
 13 18  1  0  0  0  0
 13 22  1  0  0  0  0
 14 26  1  0  0  0  0
 15 27  1  0  0  0  0
 16 28  1  0  0  0  0
 17 18  2  0  0  0  0
 17 40  1  0  0  0  0
 18 39  1  0  0  0  0
 19 20  2  0  0  0  0
 20 29  1  0  0  0  0
 21 32  1  0  0  0  0
 21 36  2  0  0  0  0
 22 34  1  0  0  0  0
 22 37  2  0  0  0  0
 23 30  1  0  0  0  0
 23 35  1  0  0  0  0
 23 38  2  0  0  0  0
 24 25  1  0  0  0  0
 24 39  1  0  0  0  0
 25 31  1  0  0  0  0
 25 40  1  0  0  0  0
 26 32  1  0  0  0  0
 27 33  1  0  0  0  0
 28 33  1  0  0  0  0
 29 33  1  0  0  0  0
 30 31  1  0  0  0  0
  1 41  1  0  0  0  0
  2 42  1  0  0  0  0
  3 43  1  0  0  0  0
  4 44  1  0  0  0  0
  5 45  1  0  0  0  0
  6 46  1  0  0  0  0
  7 47  1  0  0  0  0
  8 48  1  0  0  0  0
  9 49  1  0  0  0  0
 10 50  1  0  0  0  0
 11 51  1  0  0  0  0
 19 52  1  0  0  0  0
 19 53  1  0  0  0  0
 20 54  1  0  0  0  0
 24 55  1  0  0  0  0
 24 56  1  0  0  0  0
 25 57  1  0  0  0  0
 26 58  1  0  0  0  0
 26 59  1  0  0  0  0
 27 60  1  0  0  0  0
 27 61  1  0  0  0  0
 28 62  1  0  0  0  0
 28 63  1  0  0  0  0
 29 64  1  0  0  0  0
 29 65  1  0  0  0  0
 30 66  1  0  0  0  0
 30 67  1  0  0  0  0
 31 68  1  0  0  0  0
 31 69  1  0  0  0  0
 32 70  1  0  0  0  0
 33 71  1  0  0  0  0
M  CHG  3  33   1  34  -1  35  -1
M  END
$$$$
