AVX38752_0
  -OEChem-04011314583D

 57 60  0     1  0  0  0  0  0999 V2000
   -1.7545    2.7337    3.3399 C   0  0  0  0  0  0  0  0  0  0  0  0
    5.7370   -2.0118    1.3617 C   0  0  0  0  0  0  0  0  0  0  0  0
   -0.7878    3.1275    4.2651 C   0  0  0  0  0  0  0  0  0  0  0  0
   -1.7853    1.4168    2.8811 C   0  0  0  0  0  0  0  0  0  0  0  0
    6.1714   -0.8225    0.7766 C   0  0  0  0  0  0  0  0  0  0  0  0
    4.5180   -2.0516    2.0386 C   0  0  0  0  0  0  0  0  0  0  0  0
    0.1483    2.2045    4.7313 C   0  0  0  0  0  0  0  0  0  0  0  0
   -0.8492    0.4937    3.3473 C   0  0  0  0  0  0  0  0  0  0  0  0
    5.3868    0.3272    0.8685 C   0  0  0  0  0  0  0  0  0  0  0  0
    3.2250    4.9666    0.6749 C   0  0  0  0  0  0  0  0  0  0  0  0
    2.9577    4.2473    2.9855 C   0  0  0  0  0  0  0  0  0  0  0  0
    3.7334   -0.9020    2.1304 C   0  0  0  0  0  0  0  0  0  0  0  0
    2.5447    6.1574    0.9411 C   0  0  0  0  0  0  0  0  0  0  0  0
    0.1176    0.8876    4.2725 C   0  0  0  0  0  0  0  0  0  0  0  0
    3.4302    4.0170    1.6912 C   0  0  0  0  0  0  0  0  0  0  0  0
    4.1678    0.2874    1.5454 C   0  0  0  0  0  0  0  0  0  0  0  0
    2.2892    5.4309    3.2220 C   0  0  0  0  0  0  0  0  0  0  0  0
    2.0883    6.3604    2.2272 C   0  0  0  0  0  0  0  0  0  0  0  0
    2.0792    0.1749   -1.3972 C   0  0  0  0  0  0  0  0  0  0  0  0
    2.4455    1.2437   -0.6813 C   0  0  0  0  0  0  0  0  0  0  0  0
    2.4650   -0.9743    2.8439 C   0  0  0  0  0  0  0  0  0  0  0  0
    2.3291    7.1520   -0.1192 C   0  0  0  0  0  0  0  0  0  0  0  0
    1.2058    7.1080    4.0559 C   0  0  0  0  0  0  0  0  0  0  0  0
    1.1250   -0.1064    4.7737 C   0  0  0  0  0  0  0  0  0  0  0  0
    4.1595    2.7518    1.3837 C   0  0  0  0  0  0  0  0  0  0  0  0
    2.1217    1.4289    0.7646 C   0  0  0  0  0  0  0  0  0  0  0  0
    2.3131   -0.1339    3.9513 N   0  0  0  0  0  0  0  0  0  0  0  0
    3.3479    1.5283    1.6296 N   0  3  1  0  0  0  0  0  0  0  0  0
    2.7788    6.9073   -1.3022 O   0  5  0  0  0  0  0  0  0  0  0  0
    1.5827   -1.7690    2.4783 O   0  0  0  0  0  0  0  0  0  0  0  0
    1.6974    8.2386    0.1663 O   0  0  0  0  0  0  0  0  0  0  0  0
    1.7619    5.8260    4.4127 O   0  0  0  0  0  0  0  0  0  0  0  0
    1.4099    7.4536    2.6705 O   0  0  0  0  0  0  0  0  0  0  0  0
   -2.4842    3.4522    2.9780 H   0  0  0  0  0  0  0  0  0  0  0  0
    6.3479   -2.9069    1.2900 H   0  0  0  0  0  0  0  0  0  0  0  0
   -0.7644    4.1526    4.6233 H   0  0  0  0  0  0  0  0  0  0  0  0
   -2.5385    1.1095    2.1616 H   0  0  0  0  0  0  0  0  0  0  0  0
    7.1205   -0.7917    0.2496 H   0  0  0  0  0  0  0  0  0  0  0  0
    4.1907   -2.9848    2.4902 H   0  0  0  0  0  0  0  0  0  0  0  0
    0.8980    2.5203    5.4520 H   0  0  0  0  0  0  0  0  0  0  0  0
   -0.8806   -0.5301    2.9841 H   0  0  0  0  0  0  0  0  0  0  0  0
    5.7354    1.2484    0.4087 H   0  0  0  0  0  0  0  0  0  0  0  0
    3.6004    4.7700   -0.3274 H   0  0  0  0  0  0  0  0  0  0  0  0
    3.1096    3.5230    3.7785 H   0  0  0  0  0  0  0  0  0  0  0  0
    2.3492    0.0963   -2.4446 H   0  0  0  0  0  0  0  0  0  0  0  0
    1.5091   -0.6351   -0.9562 H   0  0  0  0  0  0  0  0  0  0  0  0
    3.0209    2.0256   -1.1701 H   0  0  0  0  0  0  0  0  0  0  0  0
    0.1287    7.0926    4.2587 H   0  0  0  0  0  0  0  0  0  0  0  0
    1.6711    7.8786    4.6812 H   0  0  0  0  0  0  0  0  0  0  0  0
    1.4294    0.1354    5.7979 H   0  0  0  0  0  0  0  0  0  0  0  0
    0.7052   -1.1176    4.7894 H   0  0  0  0  0  0  0  0  0  0  0  0
    4.4696    2.7100    0.3310 H   0  0  0  0  0  0  0  0  0  0  0  0
    5.0656    2.6494    1.9958 H   0  0  0  0  0  0  0  0  0  0  0  0
    1.5510    0.5724    1.1364 H   0  0  0  0  0  0  0  0  0  0  0  0
    1.5432    2.3397    0.9490 H   0  0  0  0  0  0  0  0  0  0  0  0
    3.0901    0.4499    4.2431 H   0  0  0  0  0  0  0  0  0  0  0  0
    3.0095    1.5767    2.6043 H   0  0  0  0  0  0  0  0  0  0  0  0
  1  3  2  0  0  0  0
  1  4  1  0  0  0  0
  2  5  2  0  0  0  0
  2  6  1  0  0  0  0
  3  7  1  0  0  0  0
  4  8  2  0  0  0  0
  5  9  1  0  0  0  0
  6 12  2  0  0  0  0
  7 14  2  0  0  0  0
  8 14  1  0  0  0  0
  9 16  2  0  0  0  0
 10 13  2  0  0  0  0
 10 15  1  0  0  0  0
 11 15  2  0  0  0  0
 11 17  1  0  0  0  0
 12 16  1  0  0  0  0
 12 21  1  0  0  0  0
 13 18  1  0  0  0  0
 13 22  1  0  0  0  0
 14 24  1  0  0  0  0
 15 25  1  0  0  0  0
 16 28  1  0  0  0  0
 17 18  2  0  0  0  0
 17 32  1  0  0  0  0
 18 33  1  0  0  0  0
 19 20  2  0  0  0  0
 20 26  1  0  0  0  0
 21 27  1  0  0  0  0
 21 30  2  0  0  0  0
 22 29  1  0  0  0  0
 22 31  2  0  0  0  0
 23 32  1  0  0  0  0
 23 33  1  0  0  0  0
 24 27  1  0  0  0  0
 25 28  1  0  0  0  0
 26 28  1  0  0  0  0
  1 34  1  0  0  0  0
  2 35  1  0  0  0  0
  3 36  1  0  0  0  0
  4 37  1  0  0  0  0
  5 38  1  0  0  0  0
  6 39  1  0  0  0  0
  7 40  1  0  0  0  0
  8 41  1  0  0  0  0
  9 42  1  0  0  0  0
 10 43  1  0  0  0  0
 11 44  1  0  0  0  0
 19 45  1  0  0  0  0
 19 46  1  0  0  0  0
 20 47  1  0  0  0  0
 23 48  1  0  0  0  0
 23 49  1  0  0  0  0
 24 50  1  0  0  0  0
 24 51  1  0  0  0  0
 25 52  1  0  0  0  0
 25 53  1  0  0  0  0
 26 54  1  0  0  0  0
 26 55  1  0  0  0  0
 27 56  1  0  0  0  0
 28 57  1  0  0  0  0
M  CHG  2  28   1  29  -1
M  END
$$$$
