AVX38784_0
  -OEChem-04011315003D

 66 68  0     1  0  0  0  0  0999 V2000
    1.1315   -4.9555    5.1679 C   0  0  0  0  0  0  0  0  0  0  0  0
    0.5851   -5.0961    3.8923 C   0  0  0  0  0  0  0  0  0  0  0  0
    2.3769   -4.3486    5.3302 C   0  0  0  0  0  0  0  0  0  0  0  0
    1.2841   -4.6299    2.7789 C   0  0  0  0  0  0  0  0  0  0  0  0
    1.9001    0.5437   -0.2746 C   0  0  0  0  0  0  0  0  0  0  0  0
    1.8195    1.9323   -0.3816 C   0  0  0  0  0  0  0  0  0  0  0  0
    3.0759   -3.8823    4.2169 C   0  0  0  0  0  0  0  0  0  0  0  0
    1.6291    0.7062    2.1225 C   0  0  0  0  0  0  0  0  0  0  0  0
    2.5296   -4.0229    2.9412 C   0  0  0  0  0  0  0  0  0  0  0  0
    1.8106   -0.0681    0.9763 C   0  0  0  0  0  0  0  0  0  0  0  0
    1.6519    2.7080    0.7658 C   0  0  0  0  0  0  0  0  0  0  0  0
    1.5346    2.0939    2.0146 C   0  0  0  0  0  0  0  0  0  0  0  0
    4.3747   -3.2531    4.4147 C   0  0  0  0  0  0  0  0  0  0  0  0
    1.5255    0.0541    3.4440 C   0  0  0  0  0  0  0  0  0  0  0  0
    2.0703    8.3713    0.2936 C   0  0  0  0  0  0  0  0  0  0  0  0
    0.9110    4.1406    2.9160 C   0  0  0  0  0  0  0  0  0  0  0  0
    1.7808    4.7701    1.8358 C   0  0  2  0  0  0  0  0  0  0  0  0
    6.4310   -4.0414    7.7805 C   0  0  0  0  0  0  0  0  0  0  0  0
    7.5963   -3.7537    4.0832 C   0  0  0  0  0  0  0  0  0  0  0  0
    4.3854   -1.5239    0.7699 C   0  0  0  0  0  0  0  0  0  0  0  0
    3.2598   -3.5311    1.7264 C   0  0  0  0  0  0  0  0  0  0  0  0
    1.9102   -1.5568    1.0567 C   0  0  0  0  0  0  0  0  0  0  0  0
    2.3222    6.8884    0.5909 C   0  0  0  0  0  0  0  0  0  0  0  0
    1.4048    6.2256    1.6004 C   0  0  0  0  0  0  0  0  0  0  0  0
    7.2936   -4.2253    6.5384 C   0  0  0  0  0  0  0  0  0  0  0  0
    6.7004   -3.5426    5.2993 C   0  0  2  0  0  0  0  0  0  0  0  0
    5.3701   -4.0309    5.0151 N   0  0  0  0  0  0  0  0  0  0  0  0
    3.2198   -2.0313    1.5800 N   0  3  2  0  0  0  0  0  0  0  0  0
    0.3630   -0.2933    3.8681 O   0  5  0  0  0  0  0  0  0  0  0  0
    2.8369    8.9144   -0.5483 O   0  5  0  0  0  0  0  0  0  0  0  0
    4.5594   -2.0718    4.0764 O   0  0  0  0  0  0  0  0  0  0  0  0
    2.6017   -0.1405    4.1192 O   0  0  0  0  0  0  0  0  0  0  0  0
    1.0989    8.8701    0.9320 O   0  0  0  0  0  0  0  0  0  0  0  0
    1.3356    2.7983    3.1727 O   0  0  0  0  0  0  0  0  0  0  0  0
    1.6005    4.0668    0.5988 O   0  0  0  0  0  0  0  0  0  0  0  0
    0.5875   -5.3183    6.0354 H   0  0  0  0  0  0  0  0  0  0  0  0
   -0.3845   -5.5691    3.7665 H   0  0  0  0  0  0  0  0  0  0  0  0
    2.7924   -4.2459    6.3295 H   0  0  0  0  0  0  0  0  0  0  0  0
    0.8492   -4.7440    1.7895 H   0  0  0  0  0  0  0  0  0  0  0  0
    2.0378   -0.0532   -1.1724 H   0  0  0  0  0  0  0  0  0  0  0  0
    1.9014    2.4009   -1.3585 H   0  0  0  0  0  0  0  0  0  0  0  0
    0.9968    4.6964    3.8557 H   0  0  0  0  0  0  0  0  0  0  0  0
   -0.1482    4.1201    2.6287 H   0  0  0  0  0  0  0  0  0  0  0  0
    2.8432    4.7094    2.1086 H   0  0  0  0  0  0  0  0  0  0  0  0
    5.4232   -4.4404    7.6304 H   0  0  0  0  0  0  0  0  0  0  0  0
    6.8770   -4.5691    8.6296 H   0  0  0  0  0  0  0  0  0  0  0  0
    6.3473   -2.9828    8.0461 H   0  0  0  0  0  0  0  0  0  0  0  0
    7.7170   -4.8197    3.8651 H   0  0  0  0  0  0  0  0  0  0  0  0
    7.1804   -3.2666    3.1939 H   0  0  0  0  0  0  0  0  0  0  0  0
    8.5915   -3.3291    4.2554 H   0  0  0  0  0  0  0  0  0  0  0  0
    4.2862   -1.9202   -0.2423 H   0  0  0  0  0  0  0  0  0  0  0  0
    4.3430   -0.4330    0.7704 H   0  0  0  0  0  0  0  0  0  0  0  0
    5.3020   -1.8813    1.2432 H   0  0  0  0  0  0  0  0  0  0  0  0
    4.3170   -3.8159    1.7575 H   0  0  0  0  0  0  0  0  0  0  0  0
    2.8287   -3.9482    0.8099 H   0  0  0  0  0  0  0  0  0  0  0  0
    1.1417   -1.9760    1.7187 H   0  0  0  0  0  0  0  0  0  0  0  0
    1.7836   -2.0217    0.0706 H   0  0  0  0  0  0  0  0  0  0  0  0
    3.3465    6.8251    0.9795 H   0  0  0  0  0  0  0  0  0  0  0  0
    2.3036    6.3347   -0.3563 H   0  0  0  0  0  0  0  0  0  0  0  0
    0.3630    6.2618    1.2867 H   0  0  0  0  0  0  0  0  0  0  0  0
    1.4828    6.7361    2.5599 H   0  0  0  0  0  0  0  0  0  0  0  0
    8.2874   -3.8096    6.7444 H   0  0  0  0  0  0  0  0  0  0  0  0
    7.4258   -5.2986    6.3536 H   0  0  0  0  0  0  0  0  0  0  0  0
    6.6045   -2.4665    5.4844 H   0  0  0  0  0  0  0  0  0  0  0  0
    5.1462   -4.9696    5.3289 H   0  0  0  0  0  0  0  0  0  0  0  0
    3.3376   -1.6429    2.5301 H   0  0  0  0  0  0  0  0  0  0  0  0
  1  2  1  0  0  0  0
  1  3  2  0  0  0  0
  2  4  2  0  0  0  0
  3  7  1  0  0  0  0
  4  9  1  0  0  0  0
  5  6  2  0  0  0  0
  5 10  1  0  0  0  0
  6 11  1  0  0  0  0
  7  9  2  0  0  0  0
  7 13  1  0  0  0  0
  8 10  2  0  0  0  0
  8 12  1  0  0  0  0
  8 14  1  0  0  0  0
  9 21  1  0  0  0  0
 10 22  1  0  0  0  0
 11 12  2  0  0  0  0
 11 35  1  0  0  0  0
 12 34  1  0  0  0  0
 13 27  1  0  0  0  0
 13 31  2  0  0  0  0
 14 29  1  0  0  0  0
 14 32  2  0  0  0  0
 15 23  1  0  0  0  0
 15 30  1  0  0  0  0
 15 33  2  0  0  0  0
 16 17  1  0  0  0  0
 16 34  1  0  0  0  0
 17 24  1  0  0  0  0
 17 35  1  0  0  0  0
 18 25  1  0  0  0  0
 19 26  1  0  0  0  0
 20 28  1  0  0  0  0
 21 28  1  0  0  0  0
 22 28  1  0  0  0  0
 23 24  1  0  0  0  0
 25 26  1  0  0  0  0
 26 27  1  0  0  0  0
  1 36  1  0  0  0  0
  2 37  1  0  0  0  0
  3 38  1  0  0  0  0
  4 39  1  0  0  0  0
  5 40  1  0  0  0  0
  6 41  1  0  0  0  0
 16 42  1  0  0  0  0
 16 43  1  0  0  0  0
 17 44  1  0  0  0  0
 18 45  1  0  0  0  0
 18 46  1  0  0  0  0
 18 47  1  0  0  0  0
 19 48  1  0  0  0  0
 19 49  1  0  0  0  0
 19 50  1  0  0  0  0
 20 51  1  0  0  0  0
 20 52  1  0  0  0  0
 20 53  1  0  0  0  0
 21 54  1  0  0  0  0
 21 55  1  0  0  0  0
 22 56  1  0  0  0  0
 22 57  1  0  0  0  0
 23 58  1  0  0  0  0
 23 59  1  0  0  0  0
 24 60  1  0  0  0  0
 24 61  1  0  0  0  0
 25 62  1  0  0  0  0
 25 63  1  0  0  0  0
 26 64  1  0  0  0  0
 27 65  1  0  0  0  0
 28 66  1  0  0  0  0
M  CHG  3  28   1  29  -1  30  -1
M  END
$$$$
