@<TRIPOS>MOLECULE
AVX38711_2
   37    39     0     0     0
SMALL
NO_CHARGES

@<TRIPOS>ATOM
      1 C1          1.5190   -6.6781    6.4407 C.ar      1 MOL         0.0000
      2 C2          1.8961   -7.3740    5.2922 C.ar      1 MOL         0.0000
      3 C3          1.0903   -5.3542    6.3448 C.ar      1 MOL         0.0000
      4 C4          1.9547   -0.9071    0.1311 C.ar      1 MOL         0.0000
      5 C5          0.5841   -0.8134    0.4218 C.ar      1 MOL         0.0000
      6 C6          1.8447   -6.7460    4.0478 C.ar      1 MOL         0.0000
      7 C7          1.0389   -4.7262    5.1003 C.ar      1 MOL         0.0000
      8 C8          2.7283   -1.9397    0.6686 C.ar      1 MOL         0.0000
      9 C9         -0.0308   -1.7524    1.2509 C.ar      1 MOL         0.0000
     10 C10         1.4160   -5.4221    3.9518 C.ar      1 MOL         0.0000
     11 C11         2.1069   -2.8726    1.4809 C.ar      1 MOL         0.0000
     12 C12         0.7506   -2.7721    1.7596 C.ar      1 MOL         0.0000
     13 C13        -1.4641   -1.6517    1.5608 C.2       1 MOL         0.0000
     14 C14         3.9573   -6.1118   -0.8374 C.2       1 MOL         0.0000
     15 C15         2.6794   -4.0216    2.2335 C.3       1 MOL         0.0000
     16 C16         1.3602   -4.7410    2.6037 C.3       1 MOL         0.0000
     17 C17         3.1043   -5.1972    0.0496 C.3       1 MOL         0.0000
     18 C18         3.6318   -4.9051    1.4414 C.3       1 MOL         0.0000
     19 O1         -2.1422   -0.6780    1.0574 O.co2     1 MOL         0.0000
     20 O2          3.5124   -6.3481   -1.9939 O.co2     1 MOL         0.0000
     21 O3         -1.9986   -2.5400    2.3265 O.co2     1 MOL         0.0000
     22 O4          5.0265   -6.5117   -0.2927 O.co2     1 MOL         0.0000
     23 O5          0.2852   -3.7597    2.5909 O.3       1 MOL         0.0000
     24 H1          1.5579   -7.1676    7.4094 H         1 MOL         0.0000
     25 H2          2.2289   -8.4052    5.3666 H         1 MOL         0.0000
     26 H3          0.7956   -4.8124    7.2386 H         1 MOL         0.0000
     27 H4          2.4193   -0.1635   -0.5108 H         1 MOL         0.0000
     28 H5          0.0084    0.0045   -0.0049 H         1 MOL         0.0000
     29 H6          2.1406   -7.2960    3.1583 H         1 MOL         0.0000
     30 H7          0.7037   -3.6944    5.0352 H         1 MOL         0.0000
     31 H8          3.7907   -1.9947    0.4570 H         1 MOL         0.0000
     32 H9          3.1860   -3.6341    3.1274 H         1 MOL         0.0000
     33 H10         1.0972   -5.5127    1.8488 H         1 MOL         0.0000
     34 H11         2.1337   -5.6973    0.1588 H         1 MOL         0.0000
     35 H12         2.9230   -4.2589   -0.4895 H         1 MOL         0.0000
     36 H13         4.6048   -4.4174    1.4120 H         1 MOL         0.0000
     37 H14         3.7420   -5.8367    1.9962 H         1 MOL         0.0000
@<TRIPOS>BOND
     1    1    2 ar
     2    1    3 ar
     3    2    6 ar
     4    3    7 ar
     5    4    5 ar
     6    4    8 ar
     7    5    9 ar
     8    6   10 ar
     9    7   10 ar
    10    8   11 ar
    11    9   12 ar
    12    9   13 1
    13   10   16 1
    14   11   12 ar
    15   11   15 1
    16   12   23 1
    17   13   19 1
    18   13   21 2
    19   14   17 1
    20   14   20 1
    21   14   22 2
    22   15   16 1
    23   15   18 1
    24   16   23 1
    25   17   18 1
    26    1   24 1
    27    2   25 1
    28    3   26 1
    29    4   27 1
    30    5   28 1
    31    6   29 1
    32    7   30 1
    33    8   31 1
    34   15   32 1
    35   16   33 1
    36   17   34 1
    37   17   35 1
    38   18   36 1
    39   18   37 1
