@<TRIPOS>MOLECULE
AVX38782_1
   71    74     0     0     0
SMALL
NO_CHARGES

@<TRIPOS>ATOM
      1 C1         -1.7850   -7.4290   -2.3228 C.ar      1 MOL         0.0000
      2 C2         -1.3289   -7.0681   -1.0550 C.ar      1 MOL         0.0000
      3 C3         -3.0487   -7.0225   -2.7512 C.ar      1 MOL         0.0000
      4 C4         -2.1365   -6.3008   -0.2156 C.ar      1 MOL         0.0000
      5 C5         -7.3814   -7.7952    2.7199 C.ar      1 MOL         0.0000
      6 C6         -7.6586   -8.8765    3.5566 C.ar      1 MOL         0.0000
      7 C7         -3.8563   -6.2552   -1.9118 C.ar      1 MOL         0.0000
      8 C8         -5.5086   -8.9977    1.7753 C.ar      1 MOL         0.0000
      9 C9         -3.4003   -5.8943   -0.6440 C.ar      1 MOL         0.0000
     10 C10        -6.3046   -7.8535    1.8345 C.ar      1 MOL         0.0000
     11 C11        -6.8544  -10.0156    3.5077 C.ar      1 MOL         0.0000
     12 C12        -5.7936  -10.0848    2.6020 C.ar      1 MOL         0.0000
     13 C13        -3.5585   -3.3652    3.5552 C.2       1 MOL         0.0000
     14 C14        -3.9632   -4.6272    3.3748 C.2       1 MOL         0.0000
     15 C15        -5.1718   -5.8448   -2.3839 C.2       1 MOL         0.0000
     16 C16        -4.3751   -9.0592    0.8299 C.2       1 MOL         0.0000
     17 C17        -7.6257  -14.0495    7.4577 C.2       1 MOL         0.0000
     18 C18       -10.2715   -7.2426   -1.4318 C.3       1 MOL         0.0000
     19 C19        -8.8682   -7.8733   -1.5480 C.3       1 MOL         0.0000
     20 C20        -9.8461   -6.2755   -2.5563 C.3       1 MOL         0.0000
     21 C21        -5.5676  -12.3404    3.1031 C.3       1 MOL         0.0000
     22 C22        -8.3895   -6.5180   -2.1087 C.3       1 MOL         0.0000
     23 C23        -6.0952  -11.9849    4.4869 C.3       1 MOL         0.0000
     24 C24        -4.2482   -5.0702    0.2795 C.3       1 MOL         0.0000
     25 C25        -6.0297   -6.6743    0.9589 C.3       1 MOL         0.0000
     26 C26        -5.1760   -5.0094    2.5920 C.3       1 MOL         0.0000
     27 C27        -7.0883  -12.8864    6.6155 C.3       1 MOL         0.0000
     28 C28        -7.4027   -6.6171   -3.2218 C.3       1 MOL         0.0000
     29 C29        -6.6420  -13.2112    5.2030 C.3       1 MOL         0.0000
     30 N1         -6.0708   -6.8631   -2.7175 N.am      1 MOL         0.0000
     31 N2         -4.8548   -5.8751    1.4004 N.4       1 MOL         0.0000
     32 O1         -4.5851   -9.5184   -0.3520 O.co2     1 MOL         0.0000
     33 O2         -7.9961  -13.7705    8.6309 O.co2     1 MOL         0.0000
     34 O3         -5.4519   -4.6394   -2.4966 O.2       1 MOL         0.0000
     35 O4         -3.2222   -8.6515    1.2257 O.co2     1 MOL         0.0000
     36 O5         -7.6426  -15.1614    6.8549 O.co2     1 MOL         0.0000
     37 O6         -4.9893  -11.1875    2.4832 O.3       1 MOL         0.0000
     38 O7         -7.1641  -11.0359    4.3679 O.3       1 MOL         0.0000
     39 H1         -1.1564   -8.0264   -2.9770 H         1 MOL         0.0000
     40 H2         -0.3449   -7.3851   -0.7218 H         1 MOL         0.0000
     41 H3         -3.3931   -7.3112   -3.7411 H         1 MOL         0.0000
     42 H4         -1.7714   -6.0246    0.7701 H         1 MOL         0.0000
     43 H5         -8.0083   -6.9087    2.7691 H         1 MOL         0.0000
     44 H6         -8.4923   -8.8180    4.2509 H         1 MOL         0.0000
     45 H7         -2.6648   -3.1518    4.1313 H         1 MOL         0.0000
     46 H8         -4.1051   -2.5284    3.1347 H         1 MOL         0.0000
     47 H9         -3.3762   -5.4300    3.8132 H         1 MOL         0.0000
     48 H10       -11.0893   -7.9177   -1.7093 H         1 MOL         0.0000
     49 H11       -10.5053   -6.7789   -0.4701 H         1 MOL         0.0000
     50 H12        -8.4215   -8.1328   -0.5806 H         1 MOL         0.0000
     51 H13        -8.7891   -8.7357   -2.2152 H         1 MOL         0.0000
     52 H14       -10.1049   -6.5854   -3.5722 H         1 MOL         0.0000
     53 H15       -10.1885   -5.2453   -2.4027 H         1 MOL         0.0000
     54 H16        -4.7846  -13.1030    3.1708 H         1 MOL         0.0000
     55 H17        -6.3606  -12.7246    2.4486 H         1 MOL         0.0000
     56 H18        -8.0378   -5.8188   -1.3423 H         1 MOL         0.0000
     57 H19        -5.3044  -11.5300    5.0988 H         1 MOL         0.0000
     58 H20        -3.6628   -4.2712    0.7471 H         1 MOL         0.0000
     59 H21        -5.0802   -4.6033   -0.2585 H         1 MOL         0.0000
     60 H22        -5.8256   -6.9802   -0.0751 H         1 MOL         0.0000
     61 H23        -6.8828   -5.9842    0.9352 H         1 MOL         0.0000
     62 H24        -5.6690   -4.1150    2.1989 H         1 MOL         0.0000
     63 H25        -5.8993   -5.5711    3.1915 H         1 MOL         0.0000
     64 H26        -6.2189  -12.4937    7.1578 H         1 MOL         0.0000
     65 H27        -7.8429  -12.0900    6.5990 H         1 MOL         0.0000
     66 H28        -7.3759   -5.6852   -3.7946 H         1 MOL         0.0000
     67 H29        -7.6604   -7.4384   -3.8969 H         1 MOL         0.0000
     68 H30        -7.4542  -13.6209    4.6050 H         1 MOL         0.0000
     69 H31        -5.8415  -13.9500    5.2303 H         1 MOL         0.0000
     70 H32        -5.7680   -7.8303   -2.6663 H         1 MOL         0.0000
     71 H33        -4.1236   -6.5363    1.7097 H         1 MOL         0.0000
@<TRIPOS>BOND
     1    1    2 ar
     2    1    3 ar
     3    2    4 ar
     4    3    7 ar
     5    4    9 ar
     6    5    6 ar
     7    5   10 ar
     8    6   11 ar
     9    7    9 ar
    10    7   15 1
    11    8   10 ar
    12    8   12 ar
    13    8   16 1
    14    9   24 1
    15   10   25 1
    16   11   12 ar
    17   11   38 1
    18   12   37 1
    19   13   14 2
    20   14   26 1
    21   15   30 am
    22   15   34 2
    23   16   32 1
    24   16   35 2
    25   17   27 1
    26   17   33 1
    27   17   36 2
    28   18   19 1
    29   18   20 1
    30   19   22 1
    31   20   22 1
    32   21   23 1
    33   21   37 1
    34   22   28 1
    35   23   29 1
    36   23   38 1
    37   24   31 1
    38   25   31 1
    39   26   31 1
    40   27   29 1
    41   28   30 1
    42    1   39 1
    43    2   40 1
    44    3   41 1
    45    4   42 1
    46    5   43 1
    47    6   44 1
    48   13   45 1
    49   13   46 1
    50   14   47 1
    51   18   48 1
    52   18   49 1
    53   19   50 1
    54   19   51 1
    55   20   52 1
    56   20   53 1
    57   21   54 1
    58   21   55 1
    59   22   56 1
    60   23   57 1
    61   24   58 1
    62   24   59 1
    63   25   60 1
    64   25   61 1
    65   26   62 1
    66   26   63 1
    67   27   64 1
    68   27   65 1
    69   28   66 1
    70   28   67 1
    71   29   68 1
    72   29   69 1
    73   30   70 1
    74   31   71 1
