@<TRIPOS>MOLECULE
AVX38748_0
   67    70     0     0     0
SMALL
NO_CHARGES

@<TRIPOS>ATOM
      1 C1          2.0069    1.7310   -0.6805 C.ar      1 MOL         0.0000
      2 C2          2.2404    0.4799   -1.2717 C.ar      1 MOL         0.0000
      3 C3          0.8190    1.9810    0.0082 C.ar      1 MOL         0.0000
      4 C4          1.2891   -0.5394   -1.1834 C.ar      1 MOL         0.0000
      5 C5         -2.8127   -3.8482    0.6768 C.ar      1 MOL         0.0000
      6 C6         -3.9240   -4.6610    0.4521 C.ar      1 MOL         0.0000
      7 C7         -2.1983   -4.0325   -1.6544 C.ar      1 MOL         0.0000
      8 C8         -0.1125    0.9601    0.1024 C.ar      1 MOL         0.0000
      9 C9          0.1167   -0.2913   -0.4868 C.ar      1 MOL         0.0000
     10 C10        -1.9480   -3.5390   -0.3737 C.ar      1 MOL         0.0000
     11 C11        -4.1671   -5.1662   -0.8254 C.ar      1 MOL         0.0000
     12 C12        -3.3171   -4.8341   -1.8827 C.ar      1 MOL         0.0000
     13 C13        -1.2856   -3.6953   -2.7660 C.2       1 MOL         0.0000
     14 C14        -2.0870   -0.9670    3.3498 C.2       1 MOL         0.0000
     15 C15        -8.2922   -9.0448   -1.4666 C.2       1 MOL         0.0000
     16 C16        -1.4594    1.0068    0.7597 C.3       1 MOL         0.0000
     17 C17        -4.8473   -5.7750   -3.3535 C.3       1 MOL         0.0000
     18 C18        -1.0743   -1.1908   -0.2824 C.3       1 MOL         0.0000
     19 C19        -1.7710   -0.4967    0.9214 C.3       1 MOL         0.0000
     20 C20        -5.2227   -6.7091   -2.2107 C.3       1 MOL         0.0000
     21 C21        -0.7528   -2.6669   -0.0948 C.3       1 MOL         0.0000
     22 C22        -1.3416   -1.5496    4.5395 C.3       1 MOL         0.0000
     23 C23        -6.9443   -8.3247   -1.3413 C.3       1 MOL         0.0000
     24 C24        -6.5973   -7.3247   -2.4274 C.3       1 MOL         0.0000
     25 C25        -2.1596   -1.5680    5.8300 C.3       1 MOL         0.0000
     26 C26        -1.4065   -2.2280    6.9889 C.3       1 MOL         0.0000
     27 C27        -2.2381   -2.2013    8.2632 C.3       1 MOL         0.0000
     28 N1         -1.3022   -0.9736    2.2078 N.am      1 MOL         0.0000
     29 N2         -1.4922   -2.8887    9.3446 N.4       1 MOL         0.0000
     30 O1         -1.5262   -2.6404   -3.4598 O.co2     1 MOL         0.0000
     31 O2         -8.5737   -9.8737   -0.5582 O.co2     1 MOL         0.0000
     32 O3         -0.2862   -4.4697   -2.9969 O.co2     1 MOL         0.0000
     33 O4         -3.2462   -0.5669    3.4125 O.2       1 MOL         0.0000
     34 O5         -8.9713   -8.7013   -2.4769 O.co2     1 MOL         0.0000
     35 O6         -3.5212   -5.2711   -3.1650 O.3       1 MOL         0.0000
     36 O7         -5.2622   -5.9750   -0.9791 O.3       1 MOL         0.0000
     37 H1          2.7566    2.5131   -0.7651 H         1 MOL         0.0000
     38 H2          3.1684    0.3057   -1.8097 H         1 MOL         0.0000
     39 H3          0.6345    2.9522    0.4544 H         1 MOL         0.0000
     40 H4          1.4725   -1.4974   -1.6578 H         1 MOL         0.0000
     41 H5         -2.6263   -3.4643    1.6764 H         1 MOL         0.0000
     42 H6         -4.5858   -4.9057    1.2784 H         1 MOL         0.0000
     43 H7         -1.4342    1.5384    1.7158 H         1 MOL         0.0000
     44 H8         -2.1761    1.4849    0.0830 H         1 MOL         0.0000
     45 H9         -4.8620   -6.3075   -4.3104 H         1 MOL         0.0000
     46 H10        -5.5345   -4.9224   -3.4284 H         1 MOL         0.0000
     47 H11        -1.7182   -1.0792   -1.1687 H         1 MOL         0.0000
     48 H12        -2.8517   -0.6815    0.9103 H         1 MOL         0.0000
     49 H13        -4.4789   -7.5105   -2.1040 H         1 MOL         0.0000
     50 H14        -0.3985   -2.8401    0.9281 H         1 MOL         0.0000
     51 H15         0.0751   -2.9509   -0.7551 H         1 MOL         0.0000
     52 H16        -0.4080   -0.9949    4.6901 H         1 MOL         0.0000
     53 H17        -1.0741   -2.5801    4.2750 H         1 MOL         0.0000
     54 H18        -6.1773   -9.1093   -1.3532 H         1 MOL         0.0000
     55 H19        -6.8961   -7.8437   -0.3563 H         1 MOL         0.0000
     56 H20        -7.3264   -6.5184   -2.4844 H         1 MOL         0.0000
     57 H21        -6.5756   -7.8248   -3.3952 H         1 MOL         0.0000
     58 H22        -2.4544   -0.5492    6.1086 H         1 MOL         0.0000
     59 H23        -3.0847   -2.1281    5.6456 H         1 MOL         0.0000
     60 H24        -1.1661   -3.2656    6.7251 H         1 MOL         0.0000
     61 H25        -0.4535   -1.7139    7.1609 H         1 MOL         0.0000
     62 H26        -3.1870   -2.7327    8.1450 H         1 MOL         0.0000
     63 H27        -2.4275   -1.1804    8.6076 H         1 MOL         0.0000
     64 H28        -0.3479   -1.3137    2.2591 H         1 MOL         0.0000
     65 H29        -1.6936   -3.8945    9.3485 H         1 MOL         0.0000
     66 H30        -1.7484   -2.5122   10.2641 H         1 MOL         0.0000
     67 H31        -0.4800   -2.7701    9.2260 H         1 MOL         0.0000
@<TRIPOS>BOND
     1    1    2 ar
     2    1    3 ar
     3    2    4 ar
     4    3    8 ar
     5    4    9 ar
     6    5    6 ar
     7    5   10 ar
     8    6   11 ar
     9    7   10 ar
    10    7   12 ar
    11    7   13 1
    12    8    9 ar
    13    8   16 1
    14    9   18 1
    15   10   21 1
    16   11   12 ar
    17   11   36 1
    18   12   35 1
    19   13   30 1
    20   13   32 2
    21   14   22 1
    22   14   28 am
    23   14   33 2
    24   15   23 1
    25   15   31 1
    26   15   34 2
    27   16   19 1
    28   17   20 1
    29   17   35 1
    30   18   19 1
    31   18   21 1
    32   19   28 1
    33   20   24 1
    34   20   36 1
    35   22   25 1
    36   23   24 1
    37   25   26 1
    38   26   27 1
    39   27   29 1
    40    1   37 1
    41    2   38 1
    42    3   39 1
    43    4   40 1
    44    5   41 1
    45    6   42 1
    46   16   43 1
    47   16   44 1
    48   17   45 1
    49   17   46 1
    50   18   47 1
    51   19   48 1
    52   20   49 1
    53   21   50 1
    54   21   51 1
    55   22   52 1
    56   22   53 1
    57   23   54 1
    58   23   55 1
    59   24   56 1
    60   24   57 1
    61   25   58 1
    62   25   59 1
    63   26   60 1
    64   26   61 1
    65   27   62 1
    66   27   63 1
    67   28   64 1
    68   29   65 1
    69   29   66 1
    70   29   67 1
