@<TRIPOS>MOLECULE
AVX38670_1
   63    66     0     0     0
SMALL
NO_CHARGES

@<TRIPOS>ATOM
      1 C1          3.8681    1.3155    2.0065 C.ar      1 MOL         0.0000
      2 C2          2.5716    1.1736    2.5010 C.ar      1 MOL         0.0000
      3 C3          4.1872    0.8327    0.7373 C.ar      1 MOL         0.0000
      4 C4          1.5942    0.5488    1.7264 C.ar      1 MOL         0.0000
      5 C5          3.2098    0.2080   -0.0373 C.ar      1 MOL         0.0000
      6 C6         -0.3684   -1.7375   -4.4308 C.ar      1 MOL         0.0000
      7 C7         -2.5525   -4.4966   -0.9228 C.ar      1 MOL         0.0000
      8 C8         -0.4149   -5.6035   -1.1285 C.ar      1 MOL         0.0000
      9 C9         -1.1573   -2.7793   -4.9242 C.ar      1 MOL         0.0000
     10 C10        -3.0350   -5.2264   -2.0091 C.ar      1 MOL         0.0000
     11 C11        -0.8973   -6.3334   -2.2148 C.ar      1 MOL         0.0000
     12 C12         1.2664   -2.0790   -6.2025 C.ar      1 MOL         0.0000
     13 C13        -1.2424   -4.6851   -0.4825 C.ar      1 MOL         0.0000
     14 C14         1.9133    0.0660    0.4572 C.ar      1 MOL         0.0000
     15 C15         0.8365   -1.3893   -5.0663 C.ar      1 MOL         0.0000
     16 C16        -0.7103   -3.4444   -6.0474 C.ar      1 MOL         0.0000
     17 C17         0.4690   -3.1036   -6.6696 C.ar      1 MOL         0.0000
     18 C18        -2.2074   -6.1448   -2.6551 C.ar      1 MOL         0.0000
     19 C19         2.5228   -1.7334   -6.8865 C.2       1 MOL         0.0000
     20 C20         0.8107   -2.1139   -0.1327 C.2       1 MOL         0.0000
     21 C21         0.5136    0.6885   -2.4731 C.2       1 MOL         0.0000
     22 C22        -0.4273   -4.7508   -7.7490 C.3       1 MOL         0.0000
     23 C23         0.3045    1.8023   -4.7078 C.3       1 MOL         0.0000
     24 C24        -1.7795   -7.7797   -4.3284 C.3       1 MOL         0.0000
     25 C25        -0.7231   -3.9000    0.6872 C.3       1 MOL         0.0000
     26 C26         1.6495   -0.2622   -4.4982 C.3       1 MOL         0.0000
     27 C27         0.8551   -0.6111   -0.3823 C.3       1 MOL         0.0000
     28 N1         -0.4291   -2.5304    0.3317 N.am      1 MOL         0.0000
     29 N2          1.0674   -0.3942   -1.7956 N.am      1 MOL         0.0000
     30 N3          0.8120    0.7420   -3.8470 N.am      1 MOL         0.0000
     31 O1          2.4943   -0.8568   -7.8297 O.co2     1 MOL         0.0000
     32 O2          3.6097   -2.3191   -6.5198 O.co2     1 MOL         0.0000
     33 O3          1.7858   -2.8454   -0.2933 O.2       1 MOL         0.0000
     34 O4         -0.1919    1.5267   -1.9035 O.2       1 MOL         0.0000
     35 O5         -1.3417   -4.4783   -6.6674 O.3       1 MOL         0.0000
     36 O6          0.7237   -3.8816   -7.7566 O.3       1 MOL         0.0000
     37 O7         -2.6788   -6.8578   -3.7143 O.3       1 MOL         0.0000
     38 H1          4.6287    1.8032    2.6092 H         1 MOL         0.0000
     39 H2          2.3227    1.5504    3.4888 H         1 MOL         0.0000
     40 H3          5.1962    0.9440    0.3516 H         1 MOL         0.0000
     41 H4          0.5867    0.4425    2.1200 H         1 MOL         0.0000
     42 H5          3.4676   -0.1652   -1.0249 H         1 MOL         0.0000
     43 H6         -0.6961   -1.1953   -3.5470 H         1 MOL         0.0000
     44 H7         -3.2042   -3.7832   -0.4255 H         1 MOL         0.0000
     45 H8          0.6074   -5.7568   -0.7923 H         1 MOL         0.0000
     46 H9         -2.0870   -3.0510   -4.4373 H         1 MOL         0.0000
     47 H10        -4.0567   -5.0753   -2.3473 H         1 MOL         0.0000
     48 H11        -0.2479   -7.0474   -2.7135 H         1 MOL         0.0000
     49 H12        -0.0831   -5.7880   -7.6645 H         1 MOL         0.0000
     50 H13        -0.9620   -4.6334   -8.6986 H         1 MOL         0.0000
     51 H14         1.0072    2.6394   -4.7269 H         1 MOL         0.0000
     52 H15        -0.6598    2.1607   -4.3376 H         1 MOL         0.0000
     53 H16         0.1723    1.4306   -5.7275 H         1 MOL         0.0000
     54 H17        -2.2817   -8.2814   -5.1591 H         1 MOL         0.0000
     55 H18        -1.4499   -8.5152   -3.5902 H         1 MOL         0.0000
     56 H19        -0.9128   -7.2324   -4.7067 H         1 MOL         0.0000
     57 H20        -1.4573   -3.8873    1.5002 H         1 MOL         0.0000
     58 H21         0.1942   -4.3471    1.0844 H         1 MOL         0.0000
     59 H22         2.3643   -0.6369   -3.7574 H         1 MOL         0.0000
     60 H23         2.2265    0.2401   -5.2818 H         1 MOL         0.0000
     61 H24        -0.1335   -0.1867   -0.1694 H         1 MOL         0.0000
     62 H25        -1.1767   -1.8504    0.4335 H         1 MOL         0.0000
     63 H26         1.6389   -1.0530   -2.3109 H         1 MOL         0.0000
@<TRIPOS>BOND
     1    1    2 ar
     2    1    3 ar
     3    2    4 ar
     4    3    5 ar
     5    4   14 ar
     6    5   14 ar
     7    6    9 ar
     8    6   15 ar
     9    7   10 ar
    10    7   13 ar
    11    8   11 ar
    12    8   13 ar
    13    9   16 ar
    14   10   18 ar
    15   11   18 ar
    16   12   15 ar
    17   12   17 ar
    18   12   19 1
    19   13   25 1
    20   14   27 1
    21   15   26 1
    22   16   17 ar
    23   16   35 1
    24   17   36 1
    25   18   37 1
    26   19   31 1
    27   19   32 2
    28   20   27 1
    29   20   28 am
    30   20   33 2
    31   21   29 am
    32   21   30 am
    33   21   34 2
    34   22   35 1
    35   22   36 1
    36   23   30 1
    37   24   37 1
    38   25   28 1
    39   26   30 1
    40   27   29 1
    41    1   38 1
    42    2   39 1
    43    3   40 1
    44    4   41 1
    45    5   42 1
    46    6   43 1
    47    7   44 1
    48    8   45 1
    49    9   46 1
    50   10   47 1
    51   11   48 1
    52   22   49 1
    53   22   50 1
    54   23   51 1
    55   23   52 1
    56   23   53 1
    57   24   54 1
    58   24   55 1
    59   24   56 1
    60   25   57 1
    61   25   58 1
    62   26   59 1
    63   26   60 1
    64   27   61 1
    65   28   62 1
    66   29   63 1
