@<TRIPOS>MOLECULE
AVX38791_0
   33    35     0     0     0
SMALL
NO_CHARGES

@<TRIPOS>ATOM
      1 C1         -9.3769   -0.4893   -1.6611 C.ar      1 MOL         0.0000
      2 C2         -9.0661    0.4669   -0.6944 C.ar      1 MOL         0.0000
      3 C3         -8.3668   -1.0313   -2.4560 C.ar      1 MOL         0.0000
      4 C4         -0.9828    1.8432   -0.5132 C.ar      1 MOL         0.0000
      5 C5         -2.1827    2.4837   -0.8519 C.ar      1 MOL         0.0000
      6 C6         -7.7453    0.8813   -0.5225 C.ar      1 MOL         0.0000
      7 C7         -7.0461   -0.6170   -2.2842 C.ar      1 MOL         0.0000
      8 C8         -0.9455    0.4696   -0.2604 C.ar      1 MOL         0.0000
      9 C9         -3.3574    1.7156   -0.9335 C.ar      1 MOL         0.0000
     10 C10        -6.7353    0.3393   -1.3174 C.ar      1 MOL         0.0000
     11 C11        -2.1012   -0.3134   -0.3361 C.ar      1 MOL         0.0000
     12 C12        -4.7209    1.9732   -1.2341 C.2       1 MOL         0.0000
     13 C13        -3.2786    0.3511   -0.6747 C.ar      1 MOL         0.0000
     14 C14        -5.3737    0.7659   -1.1396 C.2       1 MOL         0.0000
     15 C15        -5.3186    3.2084   -1.5667 C.2       1 MOL         0.0000
     16 C16        -4.9333    4.4546   -1.1255 C.2       1 MOL         0.0000
     17 C17        -2.0796   -1.7564   -0.0743 C.2       1 MOL         0.0000
     18 C18        -5.6449    5.7561   -1.5250 C.2       1 MOL         0.0000
     19 O1         -0.9601   -2.3187    0.2349 O.co2     1 MOL         0.0000
     20 O2         -6.6287    5.5858   -2.3044 O.co2     1 MOL         0.0000
     21 O3         -3.1806   -2.4238   -0.1607 O.co2     1 MOL         0.0000
     22 O4         -5.1886    6.8313   -1.0455 O.co2     1 MOL         0.0000
     23 O5         -4.5075   -0.2244   -0.8009 O.3       1 MOL         0.0000
     24 H1        -10.4052   -0.8124   -1.7944 H         1 MOL         0.0000
     25 H2         -9.8528    0.8890   -0.0757 H         1 MOL         0.0000
     26 H3         -8.6087   -1.7768   -3.2080 H         1 MOL         0.0000
     27 H4         -0.0676    2.4257   -0.4467 H         1 MOL         0.0000
     28 H5         -2.1936    3.5524   -1.0444 H         1 MOL         0.0000
     29 H6         -7.5189    1.6256    0.2371 H         1 MOL         0.0000
     30 H7         -6.2703   -1.0482   -2.9124 H         1 MOL         0.0000
     31 H8          0.0052    0.0087   -0.0007 H         1 MOL         0.0000
     32 H9         -6.2077    3.1929   -2.2387 H         1 MOL         0.0000
     33 H10        -4.0861    4.5180   -0.4439 H         1 MOL         0.0000
@<TRIPOS>BOND
     1    1    2 ar
     2    1    3 ar
     3    2    6 ar
     4    3    7 ar
     5    4    5 ar
     6    4    8 ar
     7    5    9 ar
     8    6   10 ar
     9    7   10 ar
    10    8   11 ar
    11    9   12 1
    12    9   13 ar
    13   10   14 1
    14   11   13 ar
    15   11   17 1
    16   12   14 2
    17   12   15 1
    18   13   23 1
    19   14   23 1
    20   15   16 2
    21   16   18 1
    22   17   19 1
    23   17   21 2
    24   18   20 1
    25   18   22 2
    26    1   24 1
    27    2   25 1
    28    3   26 1
    29    4   27 1
    30    5   28 1
    31    6   29 1
    32    7   30 1
    33    8   31 1
    34   15   32 1
    35   16   33 1
