AVX38710_0
  -OEChem-04011314563D

 40 42  0     0  0  0  0  0  0999 V2000
    7.0361    4.3000    2.0224 C   0  0  0  0  0  0  0  0  0  0  0  0
    5.8287    4.0624    1.3505 C   0  0  0  0  0  0  0  0  0  0  0  0
    7.8397    3.1980    2.3498 C   0  0  0  0  0  0  0  0  0  0  0  0
    5.4320    2.7641    1.0134 C   0  0  0  0  0  0  0  0  0  0  0  0
    6.2233    1.6561    1.3334 C   0  0  0  0  0  0  0  0  0  0  0  0
    7.4143    1.9283    1.9999 C   0  0  0  0  0  0  0  0  0  0  0  0
    9.0720    2.9685    2.9918 C   0  0  0  0  0  0  0  0  0  0  0  0
    4.1398    2.5856    0.3023 C   0  0  0  0  0  0  0  0  0  0  0  0
   -0.1574    2.6624    2.7552 C   0  0  0  0  0  0  0  0  0  0  0  0
    0.7181    1.4930    2.3126 C   0  0  0  0  0  0  0  0  0  0  0  0
    0.4558    4.0081    2.3772 C   0  0  0  0  0  0  0  0  0  0  0  0
    1.0459    1.5685    0.8207 C   0  0  0  0  0  0  0  0  0  0  0  0
    0.7838    4.0777    0.8851 C   0  0  0  0  0  0  0  0  0  0  0  0
    1.6645    2.9126    0.4141 C   0  0  0  0  0  0  0  0  0  0  0  0
    5.8086    0.2688    0.9779 C   0  0  0  0  0  0  0  0  0  0  0  0
    9.9865    3.9620    3.5790 C   0  0  0  0  0  0  0  0  0  0  0  0
    9.3877    1.6708    3.0389 N   0  0  0  0  0  0  0  0  0  0  0  0
    3.0131    3.0391    0.9711 N   0  0  0  0  0  0  0  0  0  0  0  0
    4.1312    2.0432   -0.7996 O   0  0  0  0  0  0  0  0  0  0  0  0
    8.3363    1.0149    2.4103 O   0  0  0  0  0  0  0  0  0  0  0  0
    7.3319    5.3128    2.2781 H   0  0  0  0  0  0  0  0  0  0  0  0
    5.1990    4.9116    1.0930 H   0  0  0  0  0  0  0  0  0  0  0  0
   -1.1520    2.5703    2.3020 H   0  0  0  0  0  0  0  0  0  0  0  0
   -0.2990    2.6196    3.8432 H   0  0  0  0  0  0  0  0  0  0  0  0
    1.6470    1.4872    2.8931 H   0  0  0  0  0  0  0  0  0  0  0  0
    0.2016    0.5491    2.5241 H   0  0  0  0  0  0  0  0  0  0  0  0
   -0.2426    4.8133    2.6342 H   0  0  0  0  0  0  0  0  0  0  0  0
    1.3669    4.1753    2.9620 H   0  0  0  0  0  0  0  0  0  0  0  0
    1.7337    0.7462    0.5566 H   0  0  0  0  0  0  0  0  0  0  0  0
    0.1281    1.3861    0.2366 H   0  0  0  0  0  0  0  0  0  0  0  0
   -0.1550    4.0956    0.3062 H   0  0  0  0  0  0  0  0  0  0  0  0
    1.2855    5.0365    0.6663 H   0  0  0  0  0  0  0  0  0  0  0  0
    1.7799    2.9524   -0.6660 H   0  0  0  0  0  0  0  0  0  0  0  0
    6.1877   -0.0010   -0.0156 H   0  0  0  0  0  0  0  0  0  0  0  0
    6.1898   -0.4602    1.7050 H   0  0  0  0  0  0  0  0  0  0  0  0
    4.7152    0.1685    0.9718 H   0  0  0  0  0  0  0  0  0  0  0  0
    9.7495    4.1466    4.6409 H   0  0  0  0  0  0  0  0  0  0  0  0
   11.0421    3.6408    3.5253 H   0  0  0  0  0  0  0  0  0  0  0  0
    9.9399    4.9334    3.0545 H   0  0  0  0  0  0  0  0  0  0  0  0
    3.0927    3.4208    1.9086 H   0  0  0  0  0  0  0  0  0  0  0  0
  1  2  2  0  0  0  0
  1  3  1  0  0  0  0
  2  4  1  0  0  0  0
  3  6  2  0  0  0  0
  3  7  1  0  0  0  0
  4  5  2  0  0  0  0
  4  8  1  0  0  0  0
  5  6  1  0  0  0  0
  5 15  1  0  0  0  0
  6 20  1  0  0  0  0
  7 16  1  0  0  0  0
  7 17  2  0  0  0  0
  8 18  1  0  0  0  0
  8 19  2  0  0  0  0
  9 10  1  0  0  0  0
  9 11  1  0  0  0  0
 10 12  1  0  0  0  0
 11 13  1  0  0  0  0
 12 14  1  0  0  0  0
 13 14  1  0  0  0  0
 14 18  1  0  0  0  0
 17 20  1  0  0  0  0
  1 21  1  0  0  0  0
  2 22  1  0  0  0  0
  9 23  1  0  0  0  0
  9 24  1  0  0  0  0
 10 25  1  0  0  0  0
 10 26  1  0  0  0  0
 11 27  1  0  0  0  0
 11 28  1  0  0  0  0
 12 29  1  0  0  0  0
 12 30  1  0  0  0  0
 13 31  1  0  0  0  0
 13 32  1  0  0  0  0
 14 33  1  0  0  0  0
 15 34  1  0  0  0  0
 15 35  1  0  0  0  0
 15 36  1  0  0  0  0
 16 37  1  0  0  0  0
 16 38  1  0  0  0  0
 16 39  1  0  0  0  0
 18 40  1  0  0  0  0
M  END
$$$$
