@<TRIPOS>MOLECULE
AVX38784_1
   66    68     0     0     0
SMALL
NO_CHARGES

@<TRIPOS>ATOM
      1 C1          1.1315   -4.9556    5.1679 C.ar      1 MOL         0.0000
      2 C2          0.5851   -5.0961    3.8923 C.ar      1 MOL         0.0000
      3 C3          2.3769   -4.3486    5.3302 C.ar      1 MOL         0.0000
      4 C4          1.2841   -4.6299    2.7789 C.ar      1 MOL         0.0000
      5 C5          1.9001    0.5437   -0.2746 C.ar      1 MOL         0.0000
      6 C6          1.8195    1.9323   -0.3816 C.ar      1 MOL         0.0000
      7 C7          3.0759   -3.8823    4.2169 C.ar      1 MOL         0.0000
      8 C8          1.6291    0.7062    2.1225 C.ar      1 MOL         0.0000
      9 C9          2.5296   -4.0229    2.9412 C.ar      1 MOL         0.0000
     10 C10         1.8106   -0.0681    0.9763 C.ar      1 MOL         0.0000
     11 C11         1.6519    2.7080    0.7658 C.ar      1 MOL         0.0000
     12 C12         1.5346    2.0939    2.0146 C.ar      1 MOL         0.0000
     13 C13         4.3747   -3.2531    4.4147 C.2       1 MOL         0.0000
     14 C14         1.5255    0.0541    3.4440 C.2       1 MOL         0.0000
     15 C15         2.0703    8.3713    0.2936 C.2       1 MOL         0.0000
     16 C16         0.9110    4.1406    2.9160 C.3       1 MOL         0.0000
     17 C17         1.7808    4.7701    1.8358 C.3       1 MOL         0.0000
     18 C18         5.3456   -1.7040    7.9945 C.3       1 MOL         0.0000
     19 C19         5.8281   -0.3146    4.3962 C.3       1 MOL         0.0000
     20 C20         4.3854   -1.5239    0.7699 C.3       1 MOL         0.0000
     21 C21         3.2598   -3.5311    1.7264 C.3       1 MOL         0.0000
     22 C22         1.9102   -1.5569    1.0567 C.3       1 MOL         0.0000
     23 C23         2.3222    6.8884    0.5909 C.3       1 MOL         0.0000
     24 C24         1.4048    6.2256    1.6004 C.3       1 MOL         0.0000
     25 C25         5.5594   -0.6980    6.8708 C.3       1 MOL         0.0000
     26 C26         5.6137   -1.3585    5.4872 C.3       1 MOL         0.0000
     27 N1          4.4077   -2.1075    5.2164 N.am      1 MOL         0.0000
     28 N2          3.2198   -2.0313    1.5800 N.4       1 MOL         0.0000
     29 O1          0.3630   -0.2933    3.8681 O.co2     1 MOL         0.0000
     30 O2          2.8369    8.9144   -0.5483 O.co2     1 MOL         0.0000
     31 O3          5.3891   -3.7192    3.8688 O.2       1 MOL         0.0000
     32 O4          2.6017   -0.1405    4.1192 O.co2     1 MOL         0.0000
     33 O5          1.0989    8.8701    0.9320 O.co2     1 MOL         0.0000
     34 O6          1.3356    2.7983    3.1727 O.3       1 MOL         0.0000
     35 O7          1.6005    4.0668    0.5988 O.3       1 MOL         0.0000
     36 H1          0.5875   -5.3183    6.0354 H         1 MOL         0.0000
     37 H2         -0.3845   -5.5691    3.7665 H         1 MOL         0.0000
     38 H3          2.7924   -4.2459    6.3295 H         1 MOL         0.0000
     39 H4          0.8492   -4.7440    1.7895 H         1 MOL         0.0000
     40 H5          2.0378   -0.0532   -1.1724 H         1 MOL         0.0000
     41 H6          1.9014    2.4009   -1.3585 H         1 MOL         0.0000
     42 H7          0.9968    4.6964    3.8557 H         1 MOL         0.0000
     43 H8         -0.1482    4.1201    2.6287 H         1 MOL         0.0000
     44 H9          2.8432    4.7094    2.1086 H         1 MOL         0.0000
     45 H10         6.1403   -2.4559    8.0151 H         1 MOL         0.0000
     46 H11         5.3439   -1.1922    8.9622 H         1 MOL         0.0000
     47 H12         4.3860   -2.2187    7.8823 H         1 MOL         0.0000
     48 H13         5.0193    0.4232    4.3948 H         1 MOL         0.0000
     49 H14         6.7766    0.2164    4.5352 H         1 MOL         0.0000
     50 H15         5.8572   -0.7862    3.4076 H         1 MOL         0.0000
     51 H16         4.2862   -1.9202   -0.2423 H         1 MOL         0.0000
     52 H17         4.3430   -0.4330    0.7704 H         1 MOL         0.0000
     53 H18         5.3020   -1.8813    1.2432 H         1 MOL         0.0000
     54 H19         4.3170   -3.8159    1.7575 H         1 MOL         0.0000
     55 H20         2.8287   -3.9482    0.8099 H         1 MOL         0.0000
     56 H21         1.1417   -1.9760    1.7187 H         1 MOL         0.0000
     57 H22         1.7836   -2.0217    0.0706 H         1 MOL         0.0000
     58 H23         3.3465    6.8251    0.9795 H         1 MOL         0.0000
     59 H24         2.3036    6.3347   -0.3563 H         1 MOL         0.0000
     60 H25         0.3630    6.2618    1.2867 H         1 MOL         0.0000
     61 H26         1.4829    6.7361    2.5599 H         1 MOL         0.0000
     62 H27         4.7379    0.0282    6.8973 H         1 MOL         0.0000
     63 H28         6.4859   -0.1428    7.0628 H         1 MOL         0.0000
     64 H29         6.4413   -2.0766    5.4561 H         1 MOL         0.0000
     65 H30         3.5396   -1.7339    5.5859 H         1 MOL         0.0000
     66 H31         3.3376   -1.6429    2.5301 H         1 MOL         0.0000
@<TRIPOS>BOND
     1    1    2 ar
     2    1    3 ar
     3    2    4 ar
     4    3    7 ar
     5    4    9 ar
     6    5    6 ar
     7    5   10 ar
     8    6   11 ar
     9    7    9 ar
    10    7   13 1
    11    8   10 ar
    12    8   12 ar
    13    8   14 1
    14    9   21 1
    15   10   22 1
    16   11   12 ar
    17   11   35 1
    18   12   34 1
    19   13   27 am
    20   13   31 2
    21   14   29 1
    22   14   32 2
    23   15   23 1
    24   15   30 1
    25   15   33 2
    26   16   17 1
    27   16   34 1
    28   17   24 1
    29   17   35 1
    30   18   25 1
    31   19   26 1
    32   20   28 1
    33   21   28 1
    34   22   28 1
    35   23   24 1
    36   25   26 1
    37   26   27 1
    38    1   36 1
    39    2   37 1
    40    3   38 1
    41    4   39 1
    42    5   40 1
    43    6   41 1
    44   16   42 1
    45   16   43 1
    46   17   44 1
    47   18   45 1
    48   18   46 1
    49   18   47 1
    50   19   48 1
    51   19   49 1
    52   19   50 1
    53   20   51 1
    54   20   52 1
    55   20   53 1
    56   21   54 1
    57   21   55 1
    58   22   56 1
    59   22   57 1
    60   23   58 1
    61   23   59 1
    62   24   60 1
    63   24   61 1
    64   25   62 1
    65   25   63 1
    66   26   64 1
    67   27   65 1
    68   28   66 1
