@<TRIPOS>MOLECULE
AVX38780_1
   75    78     0     0     0
SMALL
NO_CHARGES

@<TRIPOS>ATOM
      1 C1          7.2955   -2.8050    4.5084 C.ar      1 MOL         0.0000
      2 C2          7.2224   -1.5474    3.9095 C.ar      1 MOL         0.0000
      3 C3          6.1579   -3.6087    4.5839 C.ar      1 MOL         0.0000
      4 C4          6.0117   -1.0934    3.3862 C.ar      1 MOL         0.0000
      5 C5          0.0258   -1.3822    2.6701 C.ar      1 MOL         0.0000
      6 C6          3.7555   -8.1830    4.7160 C.ar      1 MOL         0.0000
      7 C7          1.9342   -6.9800    5.7517 C.ar      1 MOL         0.0000
      8 C8         -1.0673   -1.9218    3.3485 C.ar      1 MOL         0.0000
      9 C9          3.8043   -9.0494    5.8080 C.ar      1 MOL         0.0000
     10 C10         1.9829   -7.8465    6.8437 C.ar      1 MOL         0.0000
     11 C11         4.9472   -3.1547    4.0607 C.ar      1 MOL         0.0000
     12 C12         0.3543   -3.4815    1.5163 C.ar      1 MOL         0.0000
     13 C13         2.8205   -7.1483    4.6878 C.ar      1 MOL         0.0000
     14 C14         4.8741   -1.8971    3.4618 C.ar      1 MOL         0.0000
     15 C15         0.7389   -2.1626    1.7595 C.ar      1 MOL         0.0000
     16 C16        -1.4438   -3.2449    3.1161 C.ar      1 MOL         0.0000
     17 C17        -0.7471   -4.0174    2.1842 C.ar      1 MOL         0.0000
     18 C18         2.9180   -8.8812    6.8719 C.ar      1 MOL         0.0000
     19 C19         4.4994   -0.0115   -1.0708 C.2       1 MOL         0.0000
     20 C20         4.5840   -0.4702    0.1827 C.2       1 MOL         0.0000
     21 C21         3.7746   -4.0139    4.1536 C.2       1 MOL         0.0000
     22 C22         1.1062   -4.3016    0.5445 C.2       1 MOL         0.0000
     23 C23        -5.4384   -5.5535    6.4605 C.2       1 MOL         0.0000
     24 C24        -2.4039   -5.6354    2.3489 C.3       1 MOL         0.0000
     25 C25        -2.5926   -5.1556    3.7820 C.3       1 MOL         0.0000
     26 C26         2.0300   -9.4984    8.9900 C.3       1 MOL         0.0000
     27 C27         2.7674   -6.2160    3.5122 C.3       1 MOL         0.0000
     28 C28         3.5849   -1.3837    2.8914 C.3       1 MOL         0.0000
     29 C29         1.9102   -1.5568    1.0567 C.3       1 MOL         0.0000
     30 C30         4.3294   -1.8898    0.5695 C.3       1 MOL         0.0000
     31 C31        -4.1191   -5.1662    5.7820 C.3       1 MOL         0.0000
     32 C32        -3.9544   -5.5606    4.3269 C.3       1 MOL         0.0000
     33 N1          3.8535   -5.2626    3.5285 N.am      1 MOL         0.0000
     34 N2          3.2198   -2.0313    1.5800 N.4       1 MOL         0.0000
     35 O1          0.7345   -4.2910   -0.6858 O.co2     1 MOL         0.0000
     36 O2         -5.5678   -5.2204    7.6703 O.co2     1 MOL         0.0000
     37 O3          2.7553   -3.6248    4.7483 O.2       1 MOL         0.0000
     38 O4          2.1030   -4.9945    0.9666 O.co2     1 MOL         0.0000
     39 O5         -6.2522   -6.1582    5.7041 O.co2     1 MOL         0.0000
     40 O6         -1.0886   -5.3106    1.8880 O.3       1 MOL         0.0000
     41 O7         -2.5121   -3.7242    3.8275 O.3       1 MOL         0.0000
     42 O8          2.9649   -9.7275    7.9368 O.3       1 MOL         0.0000
     43 H1          8.2382   -3.1591    4.9159 H         1 MOL         0.0000
     44 H2          8.1085   -0.9219    3.8511 H         1 MOL         0.0000
     45 H3          6.2277   -4.5863    5.0541 H         1 MOL         0.0000
     46 H4          5.9657   -0.1122    2.9212 H         1 MOL         0.0000
     47 H5          0.3171   -0.3529    2.8620 H         1 MOL         0.0000
     48 H6          4.4498   -8.3214    3.8916 H         1 MOL         0.0000
     49 H7          1.2023   -6.1764    5.7383 H         1 MOL         0.0000
     50 H8         -1.6099   -1.3103    4.0642 H         1 MOL         0.0000
     51 H9          4.5348   -9.8538    5.8240 H         1 MOL         0.0000
     52 H10         1.2897   -7.7104    7.6690 H         1 MOL         0.0000
     53 H11         4.7011    1.0315   -1.2891 H         1 MOL         0.0000
     54 H12         4.2309   -0.6616   -1.8960 H         1 MOL         0.0000
     55 H13         4.8623    0.2223    0.9729 H         1 MOL         0.0000
     56 H14        -2.5132   -6.7233    2.2867 H         1 MOL         0.0000
     57 H15        -3.1327   -5.1809    1.6655 H         1 MOL         0.0000
     58 H16        -1.8062   -5.5602    4.4337 H         1 MOL         0.0000
     59 H17         2.1755  -10.2435    9.7759 H         1 MOL         0.0000
     60 H18         1.0127   -9.5630    8.5957 H         1 MOL         0.0000
     61 H19         2.1962   -8.5003    9.4020 H         1 MOL         0.0000
     62 H20         2.8244   -6.7760    2.5724 H         1 MOL         0.0000
     63 H21         1.8281   -5.6532    3.4990 H         1 MOL         0.0000
     64 H22         2.7491   -1.5655    3.5755 H         1 MOL         0.0000
     65 H23         3.6360   -0.3053    2.7063 H         1 MOL         0.0000
     66 H24         1.9013   -1.7917   -0.0153 H         1 MOL         0.0000
     67 H25         1.9152   -0.4636    1.1537 H         1 MOL         0.0000
     68 H26         5.2229   -2.3216    1.0307 H         1 MOL         0.0000
     69 H27         4.0443   -2.5103   -0.2860 H         1 MOL         0.0000
     70 H28        -3.3251   -5.6629    6.3538 H         1 MOL         0.0000
     71 H29        -3.9708   -4.0854    5.8990 H         1 MOL         0.0000
     72 H30        -4.7205   -5.1129    3.6961 H         1 MOL         0.0000
     73 H31        -4.0304   -6.6430    4.2277 H         1 MOL         0.0000
     74 H32         4.6874   -5.5039    3.0029 H         1 MOL         0.0000
     75 H33         3.1315   -3.0426    1.7721 H         1 MOL         0.0000
@<TRIPOS>BOND
     1    1    2 ar
     2    1    3 ar
     3    2    4 ar
     4    3   11 ar
     5    4   14 ar
     6    5    8 ar
     7    5   15 ar
     8    6    9 ar
     9    6   13 ar
    10    7   10 ar
    11    7   13 ar
    12    8   16 ar
    13    9   18 ar
    14   10   18 ar
    15   11   14 ar
    16   11   21 1
    17   12   15 ar
    18   12   17 ar
    19   12   22 1
    20   13   27 1
    21   14   28 1
    22   15   29 1
    23   16   17 ar
    24   16   41 1
    25   17   40 1
    26   18   42 1
    27   19   20 2
    28   20   30 1
    29   21   33 am
    30   21   37 2
    31   22   35 1
    32   22   38 2
    33   23   31 1
    34   23   36 1
    35   23   39 2
    36   24   25 1
    37   24   40 1
    38   25   32 1
    39   25   41 1
    40   26   42 1
    41   27   33 1
    42   28   34 1
    43   29   34 1
    44   30   34 1
    45   31   32 1
    46    1   43 1
    47    2   44 1
    48    3   45 1
    49    4   46 1
    50    5   47 1
    51    6   48 1
    52    7   49 1
    53    8   50 1
    54    9   51 1
    55   10   52 1
    56   19   53 1
    57   19   54 1
    58   20   55 1
    59   24   56 1
    60   24   57 1
    61   25   58 1
    62   26   59 1
    63   26   60 1
    64   26   61 1
    65   27   62 1
    66   27   63 1
    67   28   64 1
    68   28   65 1
    69   29   66 1
    70   29   67 1
    71   30   68 1
    72   30   69 1
    73   31   70 1
    74   31   71 1
    75   32   72 1
    76   32   73 1
    77   33   74 1
    78   34   75 1
