@<TRIPOS>MOLECULE
AVX38781_3
   77    80     0     0     0
SMALL
NO_CHARGES

@<TRIPOS>ATOM
      1 C1          1.5314    2.8161   -5.6527 C.ar      1 MOL         0.0000
      2 C2          2.0025    2.1172   -6.7641 C.ar      1 MOL         0.0000
      3 C3          1.7310    2.3038   -4.3707 C.ar      1 MOL         0.0000
      4 C4          2.6730    0.9061   -6.5936 C.ar      1 MOL         0.0000
      5 C5          0.5318   -4.6044   -4.7471 C.ar      1 MOL         0.0000
      6 C6         -0.5547   -5.3456   -5.2122 C.ar      1 MOL         0.0000
      7 C7          2.4015    1.0926   -4.2002 C.ar      1 MOL         0.0000
      8 C8         -0.4127   -2.6002   -5.7152 C.ar      1 MOL         0.0000
      9 C9          2.8726    0.3937   -5.3117 C.ar      1 MOL         0.0000
     10 C10         0.6000   -3.2327   -4.9937 C.ar      1 MOL         0.0000
     11 C11        -1.5746   -4.7110   -5.9216 C.ar      1 MOL         0.0000
     12 C12        -1.4930   -3.3432   -6.1918 C.ar      1 MOL         0.0000
     13 C13         5.5050   -3.0830   -7.5561 C.2       1 MOL         0.0000
     14 C14         4.1913   -3.1206   -7.3075 C.2       1 MOL         0.0000
     15 C15         2.5956    0.5801   -2.8506 C.2       1 MOL         0.0000
     16 C16        -0.3321   -1.1495   -5.9821 C.2       1 MOL         0.0000
     17 C17        -5.8428   -6.4980   -5.2584 C.2       1 MOL         0.0000
     18 C18         0.5480   -4.2600    0.4477 C.3       1 MOL         0.0000
     19 C19         1.9476   -3.7233    0.7310 C.3       1 MOL         0.0000
     20 C20         0.0141   -3.7561   -0.8895 C.3       1 MOL         0.0000
     21 C21         1.9941   -2.1993    0.6480 C.3       1 MOL         0.0000
     22 C22         0.0574   -2.2322   -0.9754 C.3       1 MOL         0.0000
     23 C23        -3.3034   -3.5616   -7.6296 C.3       1 MOL         0.0000
     24 C24         1.4659   -1.6890   -0.6995 C.3       1 MOL         0.0000
     25 C25        -3.7577   -4.6995   -6.7251 C.3       1 MOL         0.0000
     26 C26         3.5964   -0.9113   -5.1573 C.3       1 MOL         0.0000
     27 C27         1.7735   -2.4670   -4.4748 C.3       1 MOL         0.0000
     28 C28         3.6056   -3.2767   -5.9429 C.3       1 MOL         0.0000
     29 C29        -5.1281   -6.8049   -6.5797 C.3       1 MOL         0.0000
     30 C30         1.4723   -0.1619   -0.7381 C.3       1 MOL         0.0000
     31 C31        -4.7375   -5.6183   -7.4400 C.3       1 MOL         0.0000
     32 N1          1.4442    0.3255   -2.0984 N.am      1 MOL         0.0000
     33 N2          2.7530   -2.1027   -5.5340 N.4       1 MOL         0.0000
     34 O1         -0.8539   -0.3386   -5.1323 O.co2     1 MOL         0.0000
     35 O2         -5.6562   -7.3145   -4.3151 O.co2     1 MOL         0.0000
     36 O3          3.7415    0.4052   -2.4029 O.2       1 MOL         0.0000
     37 O4          0.2564   -0.7538   -7.0540 O.co2     1 MOL         0.0000
     38 O5         -6.5323   -5.4377   -5.2763 O.co2     1 MOL         0.0000
     39 O6         -2.4455   -2.6699   -6.9103 O.3       1 MOL         0.0000
     40 O7         -2.6253   -5.4877   -6.3338 O.3       1 MOL         0.0000
     41 H1          1.0094    3.7595   -5.7849 H         1 MOL         0.0000
     42 H2          1.8466    2.5165   -7.7621 H         1 MOL         0.0000
     43 H3          1.3581    2.8575   -3.5128 H         1 MOL         0.0000
     44 H4          3.0364    0.3698   -7.4663 H         1 MOL         0.0000
     45 H5          1.3189   -5.1048   -4.1890 H         1 MOL         0.0000
     46 H6         -0.6048   -6.4115   -5.0069 H         1 MOL         0.0000
     47 H7          5.8691   -2.9628   -8.5706 H         1 MOL         0.0000
     48 H8          6.2358   -3.1695   -6.7598 H         1 MOL         0.0000
     49 H9          3.5006   -3.0241   -8.1412 H         1 MOL         0.0000
     50 H10         0.5662   -5.3557    0.4482 H         1 MOL         0.0000
     51 H11        -0.1309   -3.9498    1.2515 H         1 MOL         0.0000
     52 H12         2.2718   -4.0486    1.7261 H         1 MOL         0.0000
     53 H13         2.6555   -4.1496    0.0095 H         1 MOL         0.0000
     54 H14         0.6093   -4.1844   -1.7054 H         1 MOL         0.0000
     55 H15        -1.0157   -4.1043   -1.0291 H         1 MOL         0.0000
     56 H16         1.3986   -1.7759    1.4671 H         1 MOL         0.0000
     57 H17         3.0260   -1.8601    0.7983 H         1 MOL         0.0000
     58 H18        -0.2774   -1.9163   -1.9707 H         1 MOL         0.0000
     59 H19        -0.6535   -1.8106   -0.2531 H         1 MOL         0.0000
     60 H20        -2.7606   -3.9299   -8.5094 H         1 MOL         0.0000
     61 H21        -4.1621   -2.9787   -7.9794 H         1 MOL         0.0000
     62 H22         2.1370   -2.0347   -1.4934 H         1 MOL         0.0000
     63 H23        -4.2286   -4.3062   -5.8139 H         1 MOL         0.0000
     64 H24         4.4898   -0.9458   -5.7901 H         1 MOL         0.0000
     65 H25         3.9152   -1.0666   -4.1210 H         1 MOL         0.0000
     66 H26         1.4628   -1.5260   -4.0031 H         1 MOL         0.0000
     67 H27         2.3289   -3.0433   -3.7238 H         1 MOL         0.0000
     68 H28         4.4023   -3.3536   -5.1966 H         1 MOL         0.0000
     69 H29         2.9660   -4.1614   -5.8623 H         1 MOL         0.0000
     70 H30        -5.8192   -7.4264   -7.1629 H         1 MOL         0.0000
     71 H31        -4.2461   -7.4210   -6.3643 H         1 MOL         0.0000
     72 H32         2.3761    0.2299   -0.2617 H         1 MOL         0.0000
     73 H33         0.5975    0.2429   -0.2209 H         1 MOL         0.0000
     74 H34        -5.6039   -5.0291   -7.7355 H         1 MOL         0.0000
     75 H35        -4.2459   -5.9677   -8.3477 H         1 MOL         0.0000
     76 H36         0.5348    0.5459   -2.4910 H         1 MOL         0.0000
     77 H37         2.2189   -1.8245   -6.3735 H         1 MOL         0.0000
@<TRIPOS>BOND
     1    1    2 ar
     2    1    3 ar
     3    2    4 ar
     4    3    7 ar
     5    4    9 ar
     6    5    6 ar
     7    5   10 ar
     8    6   11 ar
     9    7    9 ar
    10    7   15 1
    11    8   10 ar
    12    8   12 ar
    13    8   16 1
    14    9   26 1
    15   10   27 1
    16   11   12 ar
    17   11   40 1
    18   12   39 1
    19   13   14 2
    20   14   28 1
    21   15   32 am
    22   15   36 2
    23   16   34 1
    24   16   37 2
    25   17   29 1
    26   17   35 1
    27   17   38 2
    28   18   19 1
    29   18   20 1
    30   19   21 1
    31   20   22 1
    32   21   24 1
    33   22   24 1
    34   23   25 1
    35   23   39 1
    36   24   30 1
    37   25   31 1
    38   25   40 1
    39   26   33 1
    40   27   33 1
    41   28   33 1
    42   29   31 1
    43   30   32 1
    44    1   41 1
    45    2   42 1
    46    3   43 1
    47    4   44 1
    48    5   45 1
    49    6   46 1
    50   13   47 1
    51   13   48 1
    52   14   49 1
    53   18   50 1
    54   18   51 1
    55   19   52 1
    56   19   53 1
    57   20   54 1
    58   20   55 1
    59   21   56 1
    60   21   57 1
    61   22   58 1
    62   22   59 1
    63   23   60 1
    64   23   61 1
    65   24   62 1
    66   25   63 1
    67   26   64 1
    68   26   65 1
    69   27   66 1
    70   27   67 1
    71   28   68 1
    72   28   69 1
    73   29   70 1
    74   29   71 1
    75   30   72 1
    76   30   73 1
    77   31   74 1
    78   31   75 1
    79   32   76 1
    80   33   77 1
