AVX38742_1
  -OEChem-04011314563D

 47 50  0     1  0  0  0  0  0999 V2000
    1.3065   -4.6933    4.2742 C   0  0  0  0  0  0  0  0  0  0  0  0
    0.9116   -5.9276    3.7351 C   0  0  0  0  0  0  0  0  0  0  0  0
    1.5409   -3.5930    3.4455 C   0  0  0  0  0  0  0  0  0  0  0  0
    0.9303    0.0616   -0.5572 C   0  0  0  0  0  0  0  0  0  0  0  0
    0.7449   -6.0831    2.3575 C   0  0  0  0  0  0  0  0  0  0  0  0
    1.0149    0.8804   -1.6836 C   0  0  0  0  0  0  0  0  0  0  0  0
    1.3742   -3.7513    2.0784 C   0  0  0  0  0  0  0  0  0  0  0  0
    2.0374   -0.6827   -0.1485 C   0  0  0  0  0  0  0  0  0  0  0  0
    3.2357   -0.6019   -0.8584 C   0  0  0  0  0  0  0  0  0  0  0  0
    0.9780   -4.9904    1.5362 C   0  0  0  0  0  0  0  0  0  0  0  0
    2.2088    0.9508   -2.4020 C   0  0  0  0  0  0  0  0  0  0  0  0
    3.3251    0.2272   -1.9768 C   0  0  0  0  0  0  0  0  0  0  0  0
    1.5422   -2.8039    0.9787 C   0  0  0  0  0  0  0  0  0  0  0  0
    1.2274   -3.5231   -0.2920 C   0  0  0  0  0  0  0  0  0  0  0  0
    1.9041   -1.5313    1.0296 C   0  0  0  0  0  0  0  0  0  0  0  0
    4.4163   -1.3809   -0.4252 C   0  0  0  0  0  0  0  0  0  0  0  0
    2.2209    3.7367   -7.3732 C   0  0  0  0  0  0  0  0  0  0  0  0
    0.8534   -4.9582    0.0347 C   0  0  0  0  0  0  0  0  0  0  0  0
    4.6158    1.3962   -3.5122 C   0  0  0  0  0  0  0  0  0  0  0  0
    3.3513    1.4892   -4.3561 C   0  0  2  0  0  0  0  0  0  0  0  0
    2.2296    2.6638   -6.2779 C   0  0  0  0  0  0  0  0  0  0  0  0
    3.4455    2.6178   -5.3724 C   0  0  0  0  0  0  0  0  0  0  0  0
    1.2536   -3.0517   -1.4885 N   0  0  0  0  0  0  0  0  0  0  0  0
    5.2337   -0.8425    0.4064 O   0  5  0  0  0  0  0  0  0  0  0  0
    1.2054    3.7691   -8.1208 O   0  5  0  0  0  0  0  0  0  0  0  0
    4.5765   -2.5641   -0.8983 O   0  0  0  0  0  0  0  0  0  0  0  0
    3.2465    4.4770   -7.3816 O   0  0  0  0  0  0  0  0  0  0  0  0
    4.5336    0.2805   -2.6198 O   0  0  0  0  0  0  0  0  0  0  0  0
    2.2239    1.7559   -3.5104 O   0  0  0  0  0  0  0  0  0  0  0  0
    1.6363   -1.7091   -1.4282 O   0  0  0  0  0  0  0  0  0  0  0  0
    1.4307   -4.5935    5.3491 H   0  0  0  0  0  0  0  0  0  0  0  0
    0.7336   -6.7703    4.3982 H   0  0  0  0  0  0  0  0  0  0  0  0
    1.8450   -2.6450    3.8763 H   0  0  0  0  0  0  0  0  0  0  0  0
   -0.0090    0.0123   -0.0112 H   0  0  0  0  0  0  0  0  0  0  0  0
    0.4407   -7.0393    1.9450 H   0  0  0  0  0  0  0  0  0  0  0  0
    0.1456    1.4501   -2.0006 H   0  0  0  0  0  0  0  0  0  0  0  0
    2.1439   -1.0853    1.9791 H   0  0  0  0  0  0  0  0  0  0  0  0
    1.5597   -5.6445   -0.4404 H   0  0  0  0  0  0  0  0  0  0  0  0
   -0.1725   -5.1576   -0.2862 H   0  0  0  0  0  0  0  0  0  0  0  0
    5.4953    1.2443   -4.1467 H   0  0  0  0  0  0  0  0  0  0  0  0
    4.7789    2.3040   -2.9173 H   0  0  0  0  0  0  0  0  0  0  0  0
    3.1653    0.5436   -4.8823 H   0  0  0  0  0  0  0  0  0  0  0  0
    2.1630    1.6988   -6.7960 H   0  0  0  0  0  0  0  0  0  0  0  0
    1.3168    2.7699   -5.6785 H   0  0  0  0  0  0  0  0  0  0  0  0
    3.5840    3.5525   -4.8318 H   0  0  0  0  0  0  0  0  0  0  0  0
    4.3410    2.4400   -5.9672 H   0  0  0  0  0  0  0  0  0  0  0  0
    1.6233   -1.4584   -2.3675 H   0  0  0  0  0  0  0  0  0  0  0  0
  1  2  1  0  0  0  0
  1  3  2  0  0  0  0
  2  5  2  0  0  0  0
  3  7  1  0  0  0  0
  4  6  2  0  0  0  0
  4  8  1  0  0  0  0
  5 10  1  0  0  0  0
  6 11  1  0  0  0  0
  7 10  2  0  0  0  0
  7 13  1  0  0  0  0
  8  9  2  0  0  0  0
  8 15  1  0  0  0  0
  9 12  1  0  0  0  0
  9 16  1  0  0  0  0
 10 18  1  0  0  0  0
 11 12  2  0  0  0  0
 11 29  1  0  0  0  0
 12 28  1  0  0  0  0
 13 14  1  0  0  0  0
 13 15  2  0  0  0  0
 14 18  1  0  0  0  0
 14 23  2  0  0  0  0
 16 24  1  0  0  0  0
 16 26  2  0  0  0  0
 17 21  1  0  0  0  0
 17 25  1  0  0  0  0
 17 27  2  0  0  0  0
 19 20  1  0  0  0  0
 19 28  1  0  0  0  0
 20 22  1  0  0  0  0
 20 29  1  0  0  0  0
 21 22  1  0  0  0  0
 23 30  1  0  0  0  0
  1 31  1  0  0  0  0
  2 32  1  0  0  0  0
  3 33  1  0  0  0  0
  4 34  1  0  0  0  0
  5 35  1  0  0  0  0
  6 36  1  0  0  0  0
 15 37  1  0  0  0  0
 18 38  1  0  0  0  0
 18 39  1  0  0  0  0
 19 40  1  0  0  0  0
 19 41  1  0  0  0  0
 20 42  1  0  0  0  0
 21 43  1  0  0  0  0
 21 44  1  0  0  0  0
 22 45  1  0  0  0  0
 22 46  1  0  0  0  0
 30 47  1  0  0  0  0
M  CHG  2  24  -1  25  -1
M  END
$$$$
