@<TRIPOS>MOLECULE
AVX38782_0
   71    74     0     0     0
SMALL
NO_CHARGES

@<TRIPOS>ATOM
      1 C1         -3.0533   -7.4652   -3.0730 C.ar      1 MOL         0.0000
      2 C2         -4.2074   -6.6846   -3.1390 C.ar      1 MOL         0.0000
      3 C3         -2.2803   -7.4704   -1.9119 C.ar      1 MOL         0.0000
      4 C4         -4.5884   -5.9091   -2.0441 C.ar      1 MOL         0.0000
      5 C5         -3.5805   -3.3210    3.3145 C.ar      1 MOL         0.0000
      6 C6         -2.4808   -2.9185    4.0727 C.ar      1 MOL         0.0000
      7 C7         -2.6613   -6.6949   -0.8169 C.ar      1 MOL         0.0000
      8 C8         -3.4270   -5.5416    4.2585 C.ar      1 MOL         0.0000
      9 C9         -3.8154   -5.9142   -0.8829 C.ar      1 MOL         0.0000
     10 C10        -4.0495   -4.6321    3.4031 C.ar      1 MOL         0.0000
     11 C11        -1.8493   -3.8314    4.9179 C.ar      1 MOL         0.0000
     12 C12        -2.3358   -5.1360    5.0273 C.ar      1 MOL         0.0000
     13 C13        -8.3922   -5.9766    0.9307 C.2       1 MOL         0.0000
     14 C14        -7.1564   -5.9012    0.4246 C.2       1 MOL         0.0000
     15 C15        -1.8356   -6.7182    0.3829 C.2       1 MOL         0.0000
     16 C16        -3.9323   -6.9263    4.3565 C.2       1 MOL         0.0000
     17 C17         3.0471   -2.2941    7.3942 C.2       1 MOL         0.0000
     18 C18         1.9666   -2.8874    2.3168 C.3       1 MOL         0.0000
     19 C19         2.1107   -4.4096    2.5232 C.3       1 MOL         0.0000
     20 C20         0.5699   -3.1767    1.7283 C.3       1 MOL         0.0000
     21 C21        -0.9200   -5.4676    6.8372 C.3       1 MOL         0.0000
     22 C22         1.0948   -4.5840    1.3751 C.3       1 MOL         0.0000
     23 C23         0.0079   -4.4610    6.1699 C.3       1 MOL         0.0000
     24 C24        -4.2482   -5.0702    0.2795 C.3       1 MOL         0.0000
     25 C25        -5.2236   -5.0330    2.5703 C.3       1 MOL         0.0000
     26 C26        -6.0052   -6.7179    0.9117 C.3       1 MOL         0.0000
     27 C27         1.9775   -2.9303    6.4987 C.3       1 MOL         0.0000
     28 C28         0.1106   -5.6858    1.5751 C.3       1 MOL         0.0000
     29 C29         0.9905   -3.8670    7.1685 C.3       1 MOL         0.0000
     30 N1         -0.8066   -5.7742    0.4617 N.am      1 MOL         0.0000
     31 N2         -4.8548   -5.8751    1.4004 N.4       1 MOL         0.0000
     32 O1         -4.8347   -7.1904    5.2328 O.co2     1 MOL         0.0000
     33 O2          3.8630   -1.5152    6.8294 O.co2     1 MOL         0.0000
     34 O3         -2.0421   -7.5612    1.2723 O.2       1 MOL         0.0000
     35 O4         -3.4500   -7.8139    3.5619 O.co2     1 MOL         0.0000
     36 O5          2.9677   -2.6260    8.6122 O.co2     1 MOL         0.0000
     37 O6         -1.7802   -6.0680    5.8638 O.3       1 MOL         0.0000
     38 O7         -0.7624   -3.3829    5.6209 O.3       1 MOL         0.0000
     39 H1         -2.7562   -8.0696   -3.9254 H         1 MOL         0.0000
     40 H2         -4.8087   -6.6808   -4.0435 H         1 MOL         0.0000
     41 H3         -1.3826   -8.0822   -1.8733 H         1 MOL         0.0000
     42 H4         -5.4896   -5.3048   -2.1058 H         1 MOL         0.0000
     43 H5         -4.0625   -2.6058    2.6531 H         1 MOL         0.0000
     44 H6         -2.1155   -1.8987    3.9890 H         1 MOL         0.0000
     45 H7         -9.1887   -5.3592    0.5300 H         1 MOL         0.0000
     46 H8         -8.6312   -6.6500    1.7462 H         1 MOL         0.0000
     47 H9         -6.9710   -5.2133   -0.3963 H         1 MOL         0.0000
     48 H10         1.9476   -2.3100    3.2482 H         1 MOL         0.0000
     49 H11         2.6853   -2.4312    1.6313 H         1 MOL         0.0000
     50 H12         3.1113   -4.7922    2.2884 H         1 MOL         0.0000
     51 H13         1.8109   -4.7861    3.5048 H         1 MOL         0.0000
     52 H14        -0.2626   -3.1271    2.4350 H         1 MOL         0.0000
     53 H15         0.3270   -2.5644    0.8519 H         1 MOL         0.0000
     54 H16        -0.3453   -6.2728    7.3070 H         1 MOL         0.0000
     55 H17        -1.5441   -5.0000    7.6097 H         1 MOL         0.0000
     56 H18         1.5529   -4.6513    0.3823 H         1 MOL         0.0000
     57 H19         0.5654   -4.9320    5.3487 H         1 MOL         0.0000
     58 H20        -3.4019   -4.5224    0.7079 H         1 MOL         0.0000
     59 H21        -5.0019   -4.3356   -0.0240 H         1 MOL         0.0000
     60 H22        -5.9505   -5.6131    3.1531 H         1 MOL         0.0000
     61 H23        -5.7488   -4.1570    2.1685 H         1 MOL         0.0000
     62 H24        -5.6108   -7.3365    0.0998 H         1 MOL         0.0000
     63 H25        -6.2808   -7.3714    1.7455 H         1 MOL         0.0000
     64 H26         2.5198   -3.5060    5.7381 H         1 MOL         0.0000
     65 H27         1.4412   -2.1300    5.9735 H         1 MOL         0.0000
     66 H28        -0.4791   -5.5136    2.4806 H         1 MOL         0.0000
     67 H29         0.6202   -6.6497    1.6645 H         1 MOL         0.0000
     68 H30         0.4213   -3.3656    7.9493 H         1 MOL         0.0000
     69 H31         1.5248   -4.6990    7.6263 H         1 MOL         0.0000
     70 H32        -0.6429   -5.1503   -0.3217 H         1 MOL         0.0000
     71 H33        -4.1236   -6.5363    1.7097 H         1 MOL         0.0000
@<TRIPOS>BOND
     1    1    2 ar
     2    1    3 ar
     3    2    4 ar
     4    3    7 ar
     5    4    9 ar
     6    5    6 ar
     7    5   10 ar
     8    6   11 ar
     9    7    9 ar
    10    7   15 1
    11    8   10 ar
    12    8   12 ar
    13    8   16 1
    14    9   24 1
    15   10   25 1
    16   11   12 ar
    17   11   38 1
    18   12   37 1
    19   13   14 2
    20   14   26 1
    21   15   30 am
    22   15   34 2
    23   16   32 1
    24   16   35 2
    25   17   27 1
    26   17   33 1
    27   17   36 2
    28   18   19 1
    29   18   20 1
    30   19   22 1
    31   20   22 1
    32   21   23 1
    33   21   37 1
    34   22   28 1
    35   23   29 1
    36   23   38 1
    37   24   31 1
    38   25   31 1
    39   26   31 1
    40   27   29 1
    41   28   30 1
    42    1   39 1
    43    2   40 1
    44    3   41 1
    45    4   42 1
    46    5   43 1
    47    6   44 1
    48   13   45 1
    49   13   46 1
    50   14   47 1
    51   18   48 1
    52   18   49 1
    53   19   50 1
    54   19   51 1
    55   20   52 1
    56   20   53 1
    57   21   54 1
    58   21   55 1
    59   22   56 1
    60   23   57 1
    61   24   58 1
    62   24   59 1
    63   25   60 1
    64   25   61 1
    65   26   62 1
    66   26   63 1
    67   27   64 1
    68   27   65 1
    69   28   66 1
    70   28   67 1
    71   29   68 1
    72   29   69 1
    73   30   70 1
    74   31   71 1
