AVX38779_3
  -OEChem-04011314593D

 70 72  0     1  0  0  0  0  0999 V2000
    1.4977   -3.0987    6.2238 C   0  0  0  0  0  0  0  0  0  0  0  0
    2.3258   -3.8894    5.4272 C   0  0  0  0  0  0  0  0  0  0  0  0
    1.3441   -1.7419    5.9388 C   0  0  0  0  0  0  0  0  0  0  0  0
    3.0005   -3.3233    4.3456 C   0  0  0  0  0  0  0  0  0  0  0  0
    0.9561   -3.8019    0.5730 C   0  0  0  0  0  0  0  0  0  0  0  0
    0.3626   -4.7277   -0.2853 C   0  0  0  0  0  0  0  0  0  0  0  0
    2.0188   -1.1758    4.8571 C   0  0  0  0  0  0  0  0  0  0  0  0
    0.9739   -2.1591   -1.2009 C   0  0  0  0  0  0  0  0  0  0  0  0
    2.8470   -1.9665    4.0605 C   0  0  0  0  0  0  0  0  0  0  0  0
    1.2664   -2.5212    0.1142 C   0  0  0  0  0  0  0  0  0  0  0  0
    0.0825   -4.3706   -1.6046 C   0  0  0  0  0  0  0  0  0  0  0  0
    0.3678   -3.0800   -2.0558 C   0  0  0  0  0  0  0  0  0  0  0  0
    6.7308   -2.3937    1.0458 C   0  0  0  0  0  0  0  0  0  0  0  0
    5.4765   -2.8079    0.8355 C   0  0  0  0  0  0  0  0  0  0  0  0
    1.8412    0.2436    4.5822 C   0  0  0  0  0  0  0  0  0  0  0  0
    1.2955   -0.7992   -1.6801 C   0  0  0  0  0  0  0  0  0  0  0  0
   -1.6544   -8.4340   -5.2022 C   0  0  0  0  0  0  0  0  0  0  0  0
   -0.8279   -3.5378   -3.9925 C   0  0  0  0  0  0  0  0  0  0  0  0
   -0.4023   -4.9867   -3.7952 C   0  0  2  0  0  0  0  0  0  0  0  0
   -1.3993    2.1796    5.9638 C   0  0  0  0  0  0  0  0  0  0  0  0
    0.3487    2.2822    2.4932 C   0  0  0  0  0  0  0  0  0  0  0  0
    3.5849   -1.3837    2.8914 C   0  0  0  0  0  0  0  0  0  0  0  0
    1.9102   -1.5568    1.0567 C   0  0  0  0  0  0  0  0  0  0  0  0
    4.3294   -1.8898    0.5695 C   0  0  0  0  0  0  0  0  0  0  0  0
   -0.8428   -7.3777   -4.4431 C   0  0  0  0  0  0  0  0  0  0  0  0
   -1.3099   -5.9395   -4.5594 C   0  0  0  0  0  0  0  0  0  0  0  0
   -1.2096    2.3987    4.4683 C   0  0  0  0  0  0  0  0  0  0  0  0
    0.2064    2.0480    3.9935 C   0  0  1  0  0  0  0  0  0  0  0  0
    0.5401    0.6774    4.3077 N   0  0  0  0  0  0  0  0  0  0  0  0
    3.2198   -2.0313    1.5800 N   0  3  1  0  0  0  0  0  0  0  0  0
    0.4082    0.1222   -1.5546 O   0  5  0  0  0  0  0  0  0  0  0  0
   -1.2600   -9.6278   -5.0988 O   0  5  0  0  0  0  0  0  0  0  0  0
    2.8190    1.0104    4.5770 O   0  0  0  0  0  0  0  0  0  0  0  0
    2.4500   -0.5896   -2.2045 O   0  0  0  0  0  0  0  0  0  0  0  0
   -2.6439   -7.9689   -5.8382 O   0  0  0  0  0  0  0  0  0  0  0  0
    0.0862   -2.6592   -3.3288 O   0  0  0  0  0  0  0  0  0  0  0  0
   -0.4814   -5.3292   -2.4046 O   0  0  0  0  0  0  0  0  0  0  0  0
    0.9719   -3.5391    7.0662 H   0  0  0  0  0  0  0  0  0  0  0  0
    2.4452   -4.9458    5.6499 H   0  0  0  0  0  0  0  0  0  0  0  0
    0.6968   -1.1362    6.5678 H   0  0  0  0  0  0  0  0  0  0  0  0
    3.6429   -3.9484    3.7309 H   0  0  0  0  0  0  0  0  0  0  0  0
    1.1776   -4.0901    1.5973 H   0  0  0  0  0  0  0  0  0  0  0  0
    0.1346   -5.7264    0.0772 H   0  0  0  0  0  0  0  0  0  0  0  0
    7.5230   -3.1113    1.2295 H   0  0  0  0  0  0  0  0  0  0  0  0
    6.9894   -1.3407    1.0379 H   0  0  0  0  0  0  0  0  0  0  0  0
    5.2715   -3.8752    0.8487 H   0  0  0  0  0  0  0  0  0  0  0  0
   -0.8228   -3.2734   -5.0552 H   0  0  0  0  0  0  0  0  0  0  0  0
   -1.8357   -3.3499   -3.6003 H   0  0  0  0  0  0  0  0  0  0  0  0
    0.6361   -5.1343   -4.1222 H   0  0  0  0  0  0  0  0  0  0  0  0
   -0.6939    2.7778    6.5486 H   0  0  0  0  0  0  0  0  0  0  0  0
   -2.4119    2.4706    6.2610 H   0  0  0  0  0  0  0  0  0  0  0  0
   -1.2592    1.1261    6.2263 H   0  0  0  0  0  0  0  0  0  0  0  0
   -0.3649    1.6709    1.9313 H   0  0  0  0  0  0  0  0  0  0  0  0
    0.1760    3.3335    2.2369 H   0  0  0  0  0  0  0  0  0  0  0  0
    1.3574    2.0224    2.1533 H   0  0  0  0  0  0  0  0  0  0  0  0
    3.3742   -0.3142    2.7835 H   0  0  0  0  0  0  0  0  0  0  0  0
    4.6677   -1.5002    3.0091 H   0  0  0  0  0  0  0  0  0  0  0  0
    2.1012   -0.5898    0.5741 H   0  0  0  0  0  0  0  0  0  0  0  0
    1.2765   -1.3676    1.9326 H   0  0  0  0  0  0  0  0  0  0  0  0
    3.8871   -2.1113   -0.4066 H   0  0  0  0  0  0  0  0  0  0  0  0
    4.6258   -0.8362    0.5869 H   0  0  0  0  0  0  0  0  0  0  0  0
    0.1771   -7.4304   -4.8445 H   0  0  0  0  0  0  0  0  0  0  0  0
   -0.7878   -7.6722   -3.3875 H   0  0  0  0  0  0  0  0  0  0  0  0
   -2.3259   -5.8118   -4.1900 H   0  0  0  0  0  0  0  0  0  0  0  0
   -1.2927   -5.6300   -5.6041 H   0  0  0  0  0  0  0  0  0  0  0  0
   -1.9387    1.7778    3.9337 H   0  0  0  0  0  0  0  0  0  0  0  0
   -1.4415    3.4443    4.2304 H   0  0  0  0  0  0  0  0  0  0  0  0
    0.9353    2.6757    4.5193 H   0  0  0  0  0  0  0  0  0  0  0  0
   -0.2118   -0.0026    4.2632 H   0  0  0  0  0  0  0  0  0  0  0  0
    3.1315   -3.0426    1.7721 H   0  0  0  0  0  0  0  0  0  0  0  0
  1  2  1  0  0  0  0
  1  3  2  0  0  0  0
  2  4  2  0  0  0  0
  3  7  1  0  0  0  0
  4  9  1  0  0  0  0
  5  6  2  0  0  0  0
  5 10  1  0  0  0  0
  6 11  1  0  0  0  0
  7  9  2  0  0  0  0
  7 15  1  0  0  0  0
  8 10  2  0  0  0  0
  8 12  1  0  0  0  0
  8 16  1  0  0  0  0
  9 22  1  0  0  0  0
 10 23  1  0  0  0  0
 11 12  2  0  0  0  0
 11 37  1  0  0  0  0
 12 36  1  0  0  0  0
 13 14  2  0  0  0  0
 14 24  1  0  0  0  0
 15 29  1  0  0  0  0
 15 33  2  0  0  0  0
 16 31  1  0  0  0  0
 16 34  2  0  0  0  0
 17 25  1  0  0  0  0
 17 32  1  0  0  0  0
 17 35  2  0  0  0  0
 18 19  1  0  0  0  0
 18 36  1  0  0  0  0
 19 26  1  0  0  0  0
 19 37  1  0  0  0  0
 20 27  1  0  0  0  0
 21 28  1  0  0  0  0
 22 30  1  0  0  0  0
 23 30  1  0  0  0  0
 24 30  1  0  0  0  0
 25 26  1  0  0  0  0
 27 28  1  0  0  0  0
 28 29  1  0  0  0  0
  1 38  1  0  0  0  0
  2 39  1  0  0  0  0
  3 40  1  0  0  0  0
  4 41  1  0  0  0  0
  5 42  1  0  0  0  0
  6 43  1  0  0  0  0
 13 44  1  0  0  0  0
 13 45  1  0  0  0  0
 14 46  1  0  0  0  0
 18 47  1  0  0  0  0
 18 48  1  0  0  0  0
 19 49  1  0  0  0  0
 20 50  1  0  0  0  0
 20 51  1  0  0  0  0
 20 52  1  0  0  0  0
 21 53  1  0  0  0  0
 21 54  1  0  0  0  0
 21 55  1  0  0  0  0
 22 56  1  0  0  0  0
 22 57  1  0  0  0  0
 23 58  1  0  0  0  0
 23 59  1  0  0  0  0
 24 60  1  0  0  0  0
 24 61  1  0  0  0  0
 25 62  1  0  0  0  0
 25 63  1  0  0  0  0
 26 64  1  0  0  0  0
 26 65  1  0  0  0  0
 27 66  1  0  0  0  0
 27 67  1  0  0  0  0
 28 68  1  0  0  0  0
 29 69  1  0  0  0  0
 30 70  1  0  0  0  0
M  CHG  3  30   1  31  -1  32  -1
M  END
$$$$
