@<TRIPOS>MOLECULE
AVX38672_0
   58    60     0     0     0
SMALL
NO_CHARGES

@<TRIPOS>ATOM
      1 C1          3.8681    1.3155    2.0065 C.ar      1 MOL         0.0000
      2 C2          2.5716    1.1736    2.5010 C.ar      1 MOL         0.0000
      3 C3          4.1872    0.8327    0.7373 C.ar      1 MOL         0.0000
      4 C4          1.5942    0.5488    1.7264 C.ar      1 MOL         0.0000
      5 C5          3.2098    0.2080   -0.0373 C.ar      1 MOL         0.0000
      6 C6         -1.7430    0.5617   -5.4313 C.ar      1 MOL         0.0000
      7 C7         -2.5985    0.0461   -6.4079 C.ar      1 MOL         0.0000
      8 C8         -0.2687    1.4716   -7.1421 C.ar      1 MOL         0.0000
      9 C9          1.9133    0.0660    0.4572 C.ar      1 MOL         0.0000
     10 C10        -0.5848    1.2704   -5.7963 C.ar      1 MOL         0.0000
     11 C11        -2.2635    0.2587   -7.7294 C.ar      1 MOL         0.0000
     12 C12        -1.1299    0.9524   -8.0867 C.ar      1 MOL         0.0000
     13 C13         0.9369    2.2106   -7.5501 C.2       1 MOL         0.0000
     14 C14         0.8107   -2.1139   -0.1327 C.2       1 MOL         0.0000
     15 C15         0.5136    0.6885   -2.4731 C.2       1 MOL         0.0000
     16 C16        -2.1571    0.3378   -9.8891 C.3       1 MOL         0.0000
     17 C17        -1.3033   -3.8062    2.4801 C.3       1 MOL         0.0000
     18 C18        -0.7676   -4.6641    0.1855 C.3       1 MOL         0.0000
     19 C19         1.0630   -4.3588    1.8719 C.3       1 MOL         0.0000
     20 C20         1.6473   -0.2595   -4.4964 C.3       1 MOL         0.0000
     21 C21         0.3032    1.8051   -4.7101 C.3       1 MOL         0.0000
     22 C22         0.8551   -0.6111   -0.3823 C.3       1 MOL         0.0000
     23 C23        -0.2672   -3.8034    1.3502 C.3       1 MOL         0.0000
     24 N1         -0.0702   -2.4489    0.8861 N.am      1 MOL         0.0000
     25 N2          1.0674   -0.3942   -1.7956 N.am      1 MOL         0.0000
     26 N3          0.8120    0.7420   -3.8470 N.am      1 MOL         0.0000
     27 O1          0.8559    3.4852   -7.7165 O.co2     1 MOL         0.0000
     28 O2          2.0333    1.5585   -7.7277 O.co2     1 MOL         0.0000
     29 O3          1.5135   -2.9129   -0.7486 O.2       1 MOL         0.0000
     30 O4         -0.1919    1.5267   -1.9035 O.2       1 MOL         0.0000
     31 O5         -2.9721   -0.1657   -8.8109 O.3       1 MOL         0.0000
     32 O6         -0.9867    1.0489   -9.4365 O.3       1 MOL         0.0000
     33 H1          4.6287    1.8032    2.6092 H         1 MOL         0.0000
     34 H2          2.3227    1.5504    3.4888 H         1 MOL         0.0000
     35 H3          5.1962    0.9440    0.3516 H         1 MOL         0.0000
     36 H4          0.5867    0.4425    2.1200 H         1 MOL         0.0000
     37 H5          3.4676   -0.1652   -1.0249 H         1 MOL         0.0000
     38 H6         -1.9821    0.4098   -4.3814 H         1 MOL         0.0000
     39 H7         -3.4925   -0.5008   -6.1308 H         1 MOL         0.0000
     40 H8         -1.8363   -0.5065  -10.5102 H         1 MOL         0.0000
     41 H9         -2.7641    1.0147  -10.5013 H         1 MOL         0.0000
     42 H10        -0.9677   -3.1960    3.3269 H         1 MOL         0.0000
     43 H11        -2.2658   -3.4087    2.1397 H         1 MOL         0.0000
     44 H12        -1.4719   -4.8210    2.8589 H         1 MOL         0.0000
     45 H13        -0.0422   -4.6775   -0.6363 H         1 MOL         0.0000
     46 H14        -1.7082   -4.2730   -0.2195 H         1 MOL         0.0000
     47 H15        -0.9403   -5.6993    0.4998 H         1 MOL         0.0000
     48 H16         1.8238   -4.3683    1.0827 H         1 MOL         0.0000
     49 H17         1.4472   -3.7584    2.7039 H         1 MOL         0.0000
     50 H18         0.9501   -5.3904    2.2252 H         1 MOL         0.0000
     51 H19         1.0292   -1.0815   -4.8669 H         1 MOL         0.0000
     52 H20         2.3774   -0.6599   -3.7878 H         1 MOL         0.0000
     53 H21         2.1840    0.1846   -5.3391 H         1 MOL         0.0000
     54 H22         1.1627    2.3321   -5.1385 H         1 MOL         0.0000
     55 H23        -0.2350    2.5200   -4.0789 H         1 MOL         0.0000
     56 H24        -0.1335   -0.1867   -0.1694 H         1 MOL         0.0000
     57 H25        -0.6092   -1.7168    1.3390 H         1 MOL         0.0000
     58 H26         1.6389   -1.0530   -2.3109 H         1 MOL         0.0000
@<TRIPOS>BOND
     1    1    2 ar
     2    1    3 ar
     3    2    4 ar
     4    3    5 ar
     5    4    9 ar
     6    5    9 ar
     7    6    7 ar
     8    6   10 ar
     9    7   11 ar
    10    8   10 ar
    11    8   12 ar
    12    8   13 1
    13    9   22 1
    14   10   21 1
    15   11   12 ar
    16   11   31 1
    17   12   32 1
    18   13   27 1
    19   13   28 2
    20   14   22 1
    21   14   24 am
    22   14   29 2
    23   15   25 am
    24   15   26 am
    25   15   30 2
    26   16   31 1
    27   16   32 1
    28   17   23 1
    29   18   23 1
    30   19   23 1
    31   20   26 1
    32   21   26 1
    33   22   25 1
    34   23   24 1
    35    1   33 1
    36    2   34 1
    37    3   35 1
    38    4   36 1
    39    5   37 1
    40    6   38 1
    41    7   39 1
    42   16   40 1
    43   16   41 1
    44   17   42 1
    45   17   43 1
    46   17   44 1
    47   18   45 1
    48   18   46 1
    49   18   47 1
    50   19   48 1
    51   19   49 1
    52   19   50 1
    53   20   51 1
    54   20   52 1
    55   20   53 1
    56   21   54 1
    57   21   55 1
    58   22   56 1
    59   24   57 1
    60   25   58 1
