AVX38711_3
  -OEChem-04011314563D

 37 39  0     1  0  0  0  0  0999 V2000
    4.6208   -5.3193   -6.4249 C   0  0  0  0  0  0  0  0  0  0  0  0
    5.6525   -4.6823   -5.7355 C   0  0  0  0  0  0  0  0  0  0  0  0
    3.2964   -5.1272   -6.0316 C   0  0  0  0  0  0  0  0  0  0  0  0
    1.4462   -1.4535    0.6772 C   0  0  0  0  0  0  0  0  0  0  0  0
    0.7682   -0.7071   -0.3012 C   0  0  0  0  0  0  0  0  0  0  0  0
    5.3599   -3.8534   -4.6525 C   0  0  0  0  0  0  0  0  0  0  0  0
    3.0037   -4.2982   -4.9486 C   0  0  0  0  0  0  0  0  0  0  0  0
    2.4323   -2.3748    0.3146 C   0  0  0  0  0  0  0  0  0  0  0  0
    1.0709   -0.8678   -1.6544 C   0  0  0  0  0  0  0  0  0  0  0  0
    4.0355   -3.6613   -4.2591 C   0  0  0  0  0  0  0  0  0  0  0  0
    2.7268   -2.5229   -1.0294 C   0  0  0  0  0  0  0  0  0  0  0  0
    2.0592   -1.7728   -1.9884 C   0  0  0  0  0  0  0  0  0  0  0  0
    0.3605   -0.0887   -2.6783 C   0  0  0  0  0  0  0  0  0  0  0  0
    2.9517   -7.0375   -0.2443 C   0  0  0  0  0  0  0  0  0  0  0  0
    3.6744   -3.4582   -1.6989 C   0  0  2  0  0  0  0  0  0  0  0  0
    3.7177   -2.7633   -3.0856 C   0  0  2  0  0  0  0  0  0  0  0  0
    3.4270   -5.5860   -0.3788 C   0  0  0  0  0  0  0  0  0  0  0  0
    3.1211   -4.8818   -1.6844 C   0  0  0  0  0  0  0  0  0  0  0  0
   -0.5530    0.7408   -2.3059 O   0  5  0  0  0  0  0  0  0  0  0  0
    3.2134   -7.6164    0.8456 O   0  5  0  0  0  0  0  0  0  0  0  0
    0.6727   -0.2590   -3.9172 O   0  0  0  0  0  0  0  0  0  0  0  0
    2.3339   -7.4765   -1.2569 O   0  0  0  0  0  0  0  0  0  0  0  0
    2.4662   -2.0427   -3.2711 O   0  0  0  0  0  0  0  0  0  0  0  0
    4.8488   -5.9637   -7.2690 H   0  0  0  0  0  0  0  0  0  0  0  0
    6.6837   -4.8309   -6.0423 H   0  0  0  0  0  0  0  0  0  0  0  0
    2.4928   -5.6221   -6.5689 H   0  0  0  0  0  0  0  0  0  0  0  0
    1.1947   -1.3181    1.7257 H   0  0  0  0  0  0  0  0  0  0  0  0
    0.0014   -0.0019    0.0105 H   0  0  0  0  0  0  0  0  0  0  0  0
    6.1702   -3.3613   -4.1211 H   0  0  0  0  0  0  0  0  0  0  0  0
    1.9689   -4.1546   -4.6492 H   0  0  0  0  0  0  0  0  0  0  0  0
    2.9438   -2.9619    1.0695 H   0  0  0  0  0  0  0  0  0  0  0  0
    4.6661   -3.4368   -1.2338 H   0  0  0  0  0  0  0  0  0  0  0  0
    4.5206   -1.9840   -3.0629 H   0  0  0  0  0  0  0  0  0  0  0  0
    4.5181   -5.6108   -0.2652 H   0  0  0  0  0  0  0  0  0  0  0  0
    3.0294   -5.0091    0.4656 H   0  0  0  0  0  0  0  0  0  0  0  0
    2.0534   -4.8284   -1.8803 H   0  0  0  0  0  0  0  0  0  0  0  0
    3.5905   -5.4108   -2.5113 H   0  0  0  0  0  0  0  0  0  0  0  0
  1  2  2  0  0  0  0
  1  3  1  0  0  0  0
  2  6  1  0  0  0  0
  3  7  2  0  0  0  0
  4  5  1  0  0  0  0
  4  8  2  0  0  0  0
  5  9  2  0  0  0  0
  6 10  2  0  0  0  0
  7 10  1  0  0  0  0
  8 11  1  0  0  0  0
  9 12  1  0  0  0  0
  9 13  1  0  0  0  0
 10 16  1  0  0  0  0
 11 12  2  0  0  0  0
 11 15  1  0  0  0  0
 12 23  1  0  0  0  0
 13 19  1  0  0  0  0
 13 21  2  0  0  0  0
 14 17  1  0  0  0  0
 14 20  1  0  0  0  0
 14 22  2  0  0  0  0
 15 16  1  0  0  0  0
 15 18  1  0  0  0  0
 16 23  1  0  0  0  0
 17 18  1  0  0  0  0
  1 24  1  0  0  0  0
  2 25  1  0  0  0  0
  3 26  1  0  0  0  0
  4 27  1  0  0  0  0
  5 28  1  0  0  0  0
  6 29  1  0  0  0  0
  7 30  1  0  0  0  0
  8 31  1  0  0  0  0
 15 32  1  0  0  0  0
 16 33  1  0  0  0  0
 17 34  1  0  0  0  0
 17 35  1  0  0  0  0
 18 36  1  0  0  0  0
 18 37  1  0  0  0  0
M  CHG  2  19  -1  20  -1
M  END
$$$$
