@<TRIPOS>MOLECULE
AVX38711_1
   37    39     0     0     0
SMALL
NO_CHARGES

@<TRIPOS>ATOM
      1 C1          7.8457   -4.1400    3.1171 C.ar      1 MOL         0.0000
      2 C2          6.7631   -3.3969    3.5876 C.ar      1 MOL         0.0000
      3 C3          7.9283   -4.4729    1.7650 C.ar      1 MOL         0.0000
      4 C4          0.2901   -2.1086   -0.3617 C.ar      1 MOL         0.0000
      5 C5          0.7072   -0.8245    0.0243 C.ar      1 MOL         0.0000
      6 C6          5.7630   -2.9867    2.7061 C.ar      1 MOL         0.0000
      7 C7          6.9281   -4.0627    0.8835 C.ar      1 MOL         0.0000
      8 C8          1.1795   -3.1863   -0.3309 C.ar      1 MOL         0.0000
      9 C9          2.0195   -0.6011    0.4428 C.ar      1 MOL         0.0000
     10 C10         5.8455   -3.3196    1.3540 C.ar      1 MOL         0.0000
     11 C11         2.4820   -2.9524    0.0751 C.ar      1 MOL         0.0000
     12 C12         2.8847   -1.6785    0.4519 C.ar      1 MOL         0.0000
     13 C13         2.4556    0.7414    0.8527 C.2       1 MOL         0.0000
     14 C14         3.0694   -7.1927   -1.8078 C.2       1 MOL         0.0000
     15 C15         3.6112   -3.9021    0.2684 C.3       1 MOL         0.0000
     16 C16         4.7621   -2.8756    0.3983 C.3       1 MOL         0.0000
     17 C17         2.9204   -6.1008   -0.7419 C.3       1 MOL         0.0000
     18 C18         3.8275   -4.8915   -0.8671 C.3       1 MOL         0.0000
     19 O1          1.6034    1.7079    0.8231 O.co2     1 MOL         0.0000
     20 O2          2.3101   -8.1940   -1.6974 O.co2     1 MOL         0.0000
     21 O3          3.6766    0.9107    1.2288 O.co2     1 MOL         0.0000
     22 O4          3.9423   -6.9419   -2.6882 O.co2     1 MOL         0.0000
     23 O5          4.1978   -1.6103    0.8449 O.3       1 MOL         0.0000
     24 H1          8.6250   -4.4582    3.8034 H         1 MOL         0.0000
     25 H2          6.6992   -3.1367    4.6402 H         1 MOL         0.0000
     26 H3          8.7715   -5.0505    1.3982 H         1 MOL         0.0000
     27 H4         -0.7374   -2.2666   -0.6785 H         1 MOL         0.0000
     28 H5         -0.0082   -0.0061   -0.0038 H         1 MOL         0.0000
     29 H6          4.9231   -2.4082    3.0816 H         1 MOL         0.0000
     30 H7          7.0007   -4.3268   -0.1682 H         1 MOL         0.0000
     31 H8          0.8455   -4.1796   -0.6104 H         1 MOL         0.0000
     32 H9          3.4528   -4.4439    1.2103 H         1 MOL         0.0000
     33 H10         5.2412   -2.6821   -0.5856 H         1 MOL         0.0000
     34 H11         3.1373   -6.5822    0.2200 H         1 MOL         0.0000
     35 H12         1.8706   -5.7831   -0.7123 H         1 MOL         0.0000
     36 H13         3.6765   -4.3676   -1.8095 H         1 MOL         0.0000
     37 H14         4.8697   -5.2072   -0.8239 H         1 MOL         0.0000
@<TRIPOS>BOND
     1    1    2 ar
     2    1    3 ar
     3    2    6 ar
     4    3    7 ar
     5    4    5 ar
     6    4    8 ar
     7    5    9 ar
     8    6   10 ar
     9    7   10 ar
    10    8   11 ar
    11    9   12 ar
    12    9   13 1
    13   10   16 1
    14   11   12 ar
    15   11   15 1
    16   12   23 1
    17   13   19 1
    18   13   21 2
    19   14   17 1
    20   14   20 1
    21   14   22 2
    22   15   16 1
    23   15   18 1
    24   16   23 1
    25   17   18 1
    26    1   24 1
    27    2   25 1
    28    3   26 1
    29    4   27 1
    30    5   28 1
    31    6   29 1
    32    7   30 1
    33    8   31 1
    34   15   32 1
    35   16   33 1
    36   17   34 1
    37   17   35 1
    38   18   36 1
    39   18   37 1
