@<TRIPOS>MOLECULE
AVX38789_2
   64    67     0     0     0
SMALL
NO_CHARGES

@<TRIPOS>ATOM
      1 C1          0.8041   -1.4712   -8.3538 C.ar      1 MOL         0.0000
      2 C2          0.0708   -0.3296   -8.0304 C.ar      1 MOL         0.0000
      3 C3          5.4457   -6.2603   -4.7871 C.2       1 MOL         0.0000
      4 C4          1.2986   -2.2927   -7.3407 C.ar      1 MOL         0.0000
      5 C5         -0.1679   -0.0093   -6.6939 C.ar      1 MOL         0.0000
      6 C6          0.8019   -0.6244   -0.7686 C.ar      1 MOL         0.0000
      7 C7          1.8108   -1.0844    0.0779 C.ar      1 MOL         0.0000
      8 C8          4.3884   -5.7974   -3.9679 C.2       1 MOL         0.0000
      9 C9          6.0186   -5.1392   -5.3411 C.2       1 MOL         0.0000
     10 C10         1.0600   -1.9724   -6.0042 C.ar      1 MOL         0.0000
     11 C11        -0.0766   -2.8695   -0.9522 C.ar      1 MOL         0.0000
     12 C12         0.3267   -0.8308   -5.6808 C.ar      1 MOL         0.0000
     13 C13        -0.1436   -1.5148   -1.2787 C.ar      1 MOL         0.0000
     14 C14         1.8698   -2.4366    0.4160 C.ar      1 MOL         0.0000
     15 C15         0.9398   -3.3323   -0.1161 C.ar      1 MOL         0.0000
     16 C16         4.3909   -4.4264   -4.0794 C.2       1 MOL         0.0000
     17 C17         1.5885   -2.8471   -4.9662 C.2       1 MOL         0.0000
     18 C18        -1.0741   -3.8105   -1.5017 C.2       1 MOL         0.0000
     19 C19         3.4548   -3.3234    4.7231 C.2       1 MOL         0.0000
     20 C20         2.2139   -5.0857    0.7172 C.3       1 MOL         0.0000
     21 C21         2.6327   -4.1252    1.8223 C.3       1 MOL         0.0000
     22 C22        -2.2816   -1.3075   -4.4044 C.3       1 MOL         0.0000
     23 C23         0.0557   -0.4623   -4.2519 C.3       1 MOL         0.0000
     24 C24        -1.2157   -0.9880   -2.1764 C.3       1 MOL         0.0000
     25 C25         3.5402   -3.3457   -3.4772 C.3       1 MOL         0.0000
     26 C26         4.3923   -3.5886    3.5391 C.3       1 MOL         0.0000
     27 C27         3.9172   -4.5833    2.4974 C.3       1 MOL         0.0000
     28 N1          2.8706   -2.5585   -4.4874 N.am      1 MOL         0.0000
     29 N2         -1.0008   -1.3248   -3.6097 N.4       1 MOL         0.0000
     30 O1         -2.1535   -4.0194   -0.8361 O.co2     1 MOL         0.0000
     31 O2          3.5109   -2.1733    5.2384 O.co2     1 MOL         0.0000
     32 O3          0.9207   -3.8114   -4.5561 O.2       1 MOL         0.0000
     33 O4         -0.8242   -4.3844   -2.6243 O.co2     1 MOL         0.0000
     34 O5          2.7197   -4.3053    5.0321 O.co2     1 MOL         0.0000
     35 O6          5.3816   -4.0172   -4.9146 O.3       1 MOL         0.0000
     36 O7          0.9646   -4.6756    0.1520 O.3       1 MOL         0.0000
     37 O8          2.8704   -2.8242    1.2679 O.3       1 MOL         0.0000
     38 H1          0.9901   -1.7211   -9.3944 H         1 MOL         0.0000
     39 H2         -0.3138    0.3098   -8.8197 H         1 MOL         0.0000
     40 H3          5.7515   -7.2830   -4.9535 H         1 MOL         0.0000
     41 H4          1.8696   -3.1789   -7.6057 H         1 MOL         0.0000
     42 H5         -0.7408    0.8822   -6.4528 H         1 MOL         0.0000
     43 H6          0.7584    0.4318   -1.0216 H         1 MOL         0.0000
     44 H7          2.5369   -0.3824    0.4787 H         1 MOL         0.0000
     45 H8          3.7106   -6.3918   -3.3719 H         1 MOL         0.0000
     46 H9          6.8423   -4.9794   -6.0213 H         1 MOL         0.0000
     47 H10         2.9587   -5.1337   -0.0874 H         1 MOL         0.0000
     48 H11         2.0772   -6.0971    1.1145 H         1 MOL         0.0000
     49 H12         1.8397   -4.0329    2.5770 H         1 MOL         0.0000
     50 H13        -2.6787   -0.2912   -4.3757 H         1 MOL         0.0000
     51 H14        -2.0446   -1.6077   -5.4268 H         1 MOL         0.0000
     52 H15        -2.9732   -2.0122   -3.9387 H         1 MOL         0.0000
     53 H16         0.9582   -0.5618   -3.6393 H         1 MOL         0.0000
     54 H17        -0.2910    0.5735   -4.1695 H         1 MOL         0.0000
     55 H18        -2.2000   -1.3922   -1.9073 H         1 MOL         0.0000
     56 H19        -1.2836    0.1060   -2.1218 H         1 MOL         0.0000
     57 H20         2.7745   -3.7767   -2.8230 H         1 MOL         0.0000
     58 H21         4.1433   -2.6649   -2.8673 H         1 MOL         0.0000
     59 H22         5.3245   -3.9759    3.9693 H         1 MOL         0.0000
     60 H23         4.6326   -2.6297    3.0630 H         1 MOL         0.0000
     61 H24         3.7439   -5.5686    2.9269 H         1 MOL         0.0000
     62 H25         4.6705   -4.6871    1.7169 H         1 MOL         0.0000
     63 H26         3.3967   -1.7964   -4.9025 H         1 MOL         0.0000
     64 H27        -0.6472   -2.2946   -3.6529 H         1 MOL         0.0000
@<TRIPOS>BOND
     1    1    2 ar
     2    1    4 ar
     3    2    5 ar
     4    3    8 1
     5    3    9 2
     6    4   10 ar
     7    5   12 ar
     8    6    7 ar
     9    6   13 ar
    10    7   14 ar
    11    8   16 2
    12    9   35 1
    13   10   12 ar
    14   10   17 1
    15   11   13 ar
    16   11   15 ar
    17   11   18 1
    18   12   23 1
    19   13   24 1
    20   14   15 ar
    21   14   37 1
    22   15   36 1
    23   16   25 1
    24   16   35 1
    25   17   28 am
    26   17   32 2
    27   18   30 1
    28   18   33 2
    29   19   26 1
    30   19   31 1
    31   19   34 2
    32   20   21 1
    33   20   36 1
    34   21   27 1
    35   21   37 1
    36   22   29 1
    37   23   29 1
    38   24   29 1
    39   25   28 1
    40   26   27 1
    41    1   38 1
    42    2   39 1
    43    3   40 1
    44    4   41 1
    45    5   42 1
    46    6   43 1
    47    7   44 1
    48    8   45 1
    49    9   46 1
    50   20   47 1
    51   20   48 1
    52   21   49 1
    53   22   50 1
    54   22   51 1
    55   22   52 1
    56   23   53 1
    57   23   54 1
    58   24   55 1
    59   24   56 1
    60   25   57 1
    61   25   58 1
    62   26   59 1
    63   26   60 1
    64   27   61 1
    65   27   62 1
    66   28   63 1
    67   29   64 1
