@<TRIPOS>MOLECULE
AVX38753_2
   71    74     0     0     0
SMALL
NO_CHARGES

@<TRIPOS>ATOM
      1 C1          3.8898    0.5714   -2.0587 C.ar      1 MOL         0.0000
      2 C2         -2.3498   -5.9292   -1.9818 C.ar      1 MOL         0.0000
      3 C3          4.2168   -0.6964   -2.5396 C.ar      1 MOL         0.0000
      4 C4          3.0700    0.7019   -0.9377 C.ar      1 MOL         0.0000
      5 C5         -2.9641   -5.1720   -2.9793 C.ar      1 MOL         0.0000
      6 C6         -1.0551   -5.6172   -1.5670 C.ar      1 MOL         0.0000
      7 C7          3.7241   -1.8337   -1.8997 C.ar      1 MOL         0.0000
      8 C8          2.5772   -0.4353   -0.2977 C.ar      1 MOL         0.0000
      9 C9         -2.2836   -4.1029   -3.5621 C.ar      1 MOL         0.0000
     10 C10        -3.6325   -0.4324   -2.3642 C.ar      1 MOL         0.0000
     11 C11        -4.7179    0.4210   -2.1649 C.ar      1 MOL         0.0000
     12 C12        -0.3746   -4.5481   -2.1497 C.ar      1 MOL         0.0000
     13 C13        -2.1580    1.1970   -1.3557 C.ar      1 MOL         0.0000
     14 C14         2.9042   -1.7031   -0.7787 C.ar      1 MOL         0.0000
     15 C15        -0.9888   -3.7909   -3.1473 C.ar      1 MOL         0.0000
     16 C16        -2.3552   -0.0471   -1.9553 C.ar      1 MOL         0.0000
     17 C17        -4.5235    1.6594   -1.5526 C.ar      1 MOL         0.0000
     18 C18        -3.2409    2.0563   -1.1680 C.ar      1 MOL         0.0000
     19 C19         0.4028   -0.3818   -6.7536 C.2       1 MOL         0.0000
     20 C20        -0.5664   -0.2775   -5.8379 C.2       1 MOL         0.0000
     21 C21         0.9767   -4.2446   -1.6983 C.2       1 MOL         0.0000
     22 C22        -0.8027    1.6050   -0.9326 C.2       1 MOL         0.0000
     23 C23        -8.0883    3.1335    1.0872 C.2       1 MOL         0.0000
     24 C24        -4.0677    4.1878   -0.7610 C.3       1 MOL         0.0000
     25 C25        -5.3883    3.5048   -0.4310 C.3       1 MOL         0.0000
     26 C26         2.3733   -2.9268   -0.0896 C.3       1 MOL         0.0000
     27 C27        -0.2799   -2.6362   -3.7915 C.3       1 MOL         0.0000
     28 C28        -1.2157   -0.9880   -2.1764 C.3       1 MOL         0.0000
     29 C29        -0.3192   -0.2135   -4.3666 C.3       1 MOL         0.0000
     30 C30        -7.8840    3.7900   -0.2831 C.3       1 MOL         0.0000
     31 C31        -6.5539    4.4786   -0.5224 C.3       1 MOL         0.0000
     32 N1          1.1017   -3.3454   -0.6343 N.am      1 MOL         0.0000
     33 N2         -1.0008   -1.3248   -3.6097 N.4       1 MOL         0.0000
     34 O1         -0.4173    1.3140    0.2585 O.co2     1 MOL         0.0000
     35 O2         -8.8432    2.1233    1.1201 O.co2     1 MOL         0.0000
     36 O3          1.9582   -4.7572   -2.2621 O.2       1 MOL         0.0000
     37 O4         -0.0609    2.2356   -1.7717 O.co2     1 MOL         0.0000
     38 O5         -7.4521    3.6896    2.0284 O.co2     1 MOL         0.0000
     39 O6         -2.9810    3.2719   -0.5921 O.3       1 MOL         0.0000
     40 O7         -5.6309    2.4441   -1.3652 O.3       1 MOL         0.0000
     41 H1          4.2747    1.4567   -2.5563 H         1 MOL         0.0000
     42 H2         -2.8794   -6.7618   -1.5275 H         1 MOL         0.0000
     43 H3          4.8560   -0.7983   -3.4118 H         1 MOL         0.0000
     44 H4          2.8160    1.6888   -0.5623 H         1 MOL         0.0000
     45 H5         -3.9721   -5.4156   -3.3021 H         1 MOL         0.0000
     46 H6         -0.5871   -6.2156   -0.7895 H         1 MOL         0.0000
     47 H7          3.9840   -2.8174   -2.2816 H         1 MOL         0.0000
     48 H8          1.9390   -0.3239    0.5749 H         1 MOL         0.0000
     49 H9         -2.7714   -3.5191   -4.3382 H         1 MOL         0.0000
     50 H10        -3.7933   -1.3985   -2.8354 H         1 MOL         0.0000
     51 H11        -5.7108    0.1088   -2.4772 H         1 MOL         0.0000
     52 H12         0.1592   -0.4192   -7.8098 H         1 MOL         0.0000
     53 H13         1.4483   -0.4305   -6.4703 H         1 MOL         0.0000
     54 H14        -1.5984   -0.2270   -6.1753 H         1 MOL         0.0000
     55 H15        -4.0473    4.5627   -1.7923 H         1 MOL         0.0000
     56 H16        -3.8906    5.0336   -0.0883 H         1 MOL         0.0000
     57 H17        -5.3583    3.0691    0.5770 H         1 MOL         0.0000
     58 H18         3.0749   -3.7619   -0.1908 H         1 MOL         0.0000
     59 H19         2.2353   -2.7458    0.9816 H         1 MOL         0.0000
     60 H20         0.7235   -2.5042   -3.3728 H         1 MOL         0.0000
     61 H21        -0.1736   -2.7897   -4.8708 H         1 MOL         0.0000
     62 H22        -0.2701   -0.5670   -1.8117 H         1 MOL         0.0000
     63 H23        -1.3743   -1.9405   -1.6545 H         1 MOL         0.0000
     64 H24        -0.7114    0.7230   -3.9583 H         1 MOL         0.0000
     65 H25         0.7448   -0.2832   -4.1192 H         1 MOL         0.0000
     66 H26        -8.6731    4.5463   -0.3795 H         1 MOL         0.0000
     67 H27        -8.0641    3.0373   -1.0609 H         1 MOL         0.0000
     68 H28        -6.3811    5.2848    0.1886 H         1 MOL         0.0000
     69 H29        -6.5362    4.9073   -1.5241 H         1 MOL         0.0000
     70 H30         0.2695   -2.9080   -0.2523 H         1 MOL         0.0000
     71 H31        -1.9300   -1.4433   -4.0454 H         1 MOL         0.0000
@<TRIPOS>BOND
     1    1    3 ar
     2    1    4 ar
     3    2    5 ar
     4    2    6 ar
     5    3    7 ar
     6    4    8 ar
     7    5    9 ar
     8    6   12 ar
     9    7   14 ar
    10    8   14 ar
    11    9   15 ar
    12   10   11 ar
    13   10   16 ar
    14   11   17 ar
    15   12   15 ar
    16   12   21 1
    17   13   16 ar
    18   13   18 ar
    19   13   22 1
    20   14   26 1
    21   15   27 1
    22   16   28 1
    23   17   18 ar
    24   17   40 1
    25   18   39 1
    26   19   20 2
    27   20   29 1
    28   21   32 am
    29   21   36 2
    30   22   34 1
    31   22   37 2
    32   23   30 1
    33   23   35 1
    34   23   38 2
    35   24   25 1
    36   24   39 1
    37   25   31 1
    38   25   40 1
    39   26   32 1
    40   27   33 1
    41   28   33 1
    42   29   33 1
    43   30   31 1
    44    1   41 1
    45    2   42 1
    46    3   43 1
    47    4   44 1
    48    5   45 1
    49    6   46 1
    50    7   47 1
    51    8   48 1
    52    9   49 1
    53   10   50 1
    54   11   51 1
    55   19   52 1
    56   19   53 1
    57   20   54 1
    58   24   55 1
    59   24   56 1
    60   25   57 1
    61   26   58 1
    62   26   59 1
    63   27   60 1
    64   27   61 1
    65   28   62 1
    66   28   63 1
    67   29   64 1
    68   29   65 1
    69   30   66 1
    70   30   67 1
    71   31   68 1
    72   31   69 1
    73   32   70 1
    74   33   71 1
