@<TRIPOS>MOLECULE
AVX38787_0
   73    76     0     0     0
SMALL
NO_CHARGES

@<TRIPOS>ATOM
      1 C1          6.1394   -2.2484   -7.3909 C.ar      1 MOL         0.0000
      2 C2          5.3031   -1.4103   -8.1284 C.ar      1 MOL         0.0000
      3 C3          5.5951   -3.1336   -6.4604 C.ar      1 MOL         0.0000
      4 C4          3.9225   -1.4573   -7.9352 C.ar      1 MOL         0.0000
      5 C5         -1.0214   -3.1177   -4.8973 C.ar      1 MOL         0.0000
      6 C6         -1.3502   -3.5009   -3.5969 C.ar      1 MOL         0.0000
      7 C7          4.2145   -3.1806   -6.2672 C.ar      1 MOL         0.0000
      8 C8         -0.4785   -5.4099   -5.4424 C.ar      1 MOL         0.0000
      9 C9          3.3782   -2.3425   -7.0046 C.ar      1 MOL         0.0000
     10 C10        -0.5808   -4.0700   -5.8171 C.ar      1 MOL         0.0000
     11 C11        -1.2347   -4.8385   -3.2175 C.ar      1 MOL         0.0000
     12 C12        -0.8203   -5.7959   -4.1461 C.ar      1 MOL         0.0000
     13 C13         3.6726   -4.1136   -5.2886 C.2       1 MOL         0.0000
     14 C14        -0.0206   -6.4165   -6.4219 C.2       1 MOL         0.0000
     15 C15        -1.8956   -6.1621    2.2854 C.2       1 MOL         0.0000
     16 C16         5.7535   -5.8114    0.2404 C.3       1 MOL         0.0000
     17 C17         6.3035   -4.8980   -0.8506 C.3       1 MOL         0.0000
     18 C18         4.7417   -6.8068   -0.3187 C.3       1 MOL         0.0000
     19 C19         5.1838   -4.1909   -1.6108 C.3       1 MOL         0.0000
     20 C20         3.6194   -6.1030   -1.0782 C.3       1 MOL         0.0000
     21 C21        -1.4106   -7.4566   -2.6349 C.3       1 MOL         0.0000
     22 C22         4.1685   -5.1897   -2.1825 C.3       1 MOL         0.0000
     23 C23        -1.0725   -6.4478   -1.5450 C.3       1 MOL         0.0000
     24 C24         1.5815   -3.6859   -8.9092 C.3       1 MOL         0.0000
     25 C25         1.8900   -2.3717   -6.8167 C.3       1 MOL         0.0000
     26 C26        -0.2278   -3.6245   -7.1991 C.3       1 MOL         0.0000
     27 C27        -1.3282   -5.8720    0.8908 C.3       1 MOL         0.0000
     28 C28         3.0313   -4.4567   -2.8916 C.3       1 MOL         0.0000
     29 C29        -1.7294   -6.8192   -0.2236 C.3       1 MOL         0.0000
     30 N1          3.5312   -3.6456   -3.9782 N.am      1 MOL         0.0000
     31 N2          1.2388   -3.5774   -7.4452 N.4       1 MOL         0.0000
     32 O1         -0.8984   -7.0072   -7.1517 O.co2     1 MOL         0.0000
     33 O2         -1.5581   -5.3686    3.2062 O.co2     1 MOL         0.0000
     34 O3          3.3766   -5.2735   -5.6222 O.2       1 MOL         0.0000
     35 O4          1.2379   -6.6633   -6.5066 O.co2     1 MOL         0.0000
     36 O5         -2.6555   -7.1720    2.3359 O.co2     1 MOL         0.0000
     37 O6         -0.7191   -7.1284   -3.8441 O.3       1 MOL         0.0000
     38 O7         -1.5523   -5.1497   -1.9217 O.3       1 MOL         0.0000
     39 H1          7.2147   -2.2123   -7.5411 H         1 MOL         0.0000
     40 H2          5.7276   -0.7211   -8.8526 H         1 MOL         0.0000
     41 H3          6.2576   -3.7807   -5.8912 H         1 MOL         0.0000
     42 H4          3.2798   -0.8004   -8.5153 H         1 MOL         0.0000
     43 H5         -1.1072   -2.0726   -5.1830 H         1 MOL         0.0000
     44 H6         -1.6816   -2.7509   -2.8840 H         1 MOL         0.0000
     45 H7          6.5778   -6.3528    0.7183 H         1 MOL         0.0000
     46 H8          5.2751   -5.2034    1.0180 H         1 MOL         0.0000
     47 H9          6.9734   -4.1541   -0.4044 H         1 MOL         0.0000
     48 H10         6.9047   -5.4885   -1.5529 H         1 MOL         0.0000
     49 H11         5.2520   -7.5085   -0.9900 H         1 MOL         0.0000
     50 H12         4.3178   -7.3996    0.4999 H         1 MOL         0.0000
     51 H13         4.6776   -3.4891   -0.9355 H         1 MOL         0.0000
     52 H14         5.6181   -3.5932   -2.4213 H         1 MOL         0.0000
     53 H15         2.9497   -6.8548   -1.5128 H         1 MOL         0.0000
     54 H16         3.0199   -5.5151   -0.3712 H         1 MOL         0.0000
     55 H17        -1.0969   -8.4640   -2.3416 H         1 MOL         0.0000
     56 H18        -2.4870   -7.4842   -2.8478 H         1 MOL         0.0000
     57 H19         4.6705   -5.8098   -2.9332 H         1 MOL         0.0000
     58 H20         0.0147   -6.3794   -1.4031 H         1 MOL         0.0000
     59 H21         1.1487   -2.8228   -9.4183 H         1 MOL         0.0000
     60 H22         2.6695   -3.6895   -8.9983 H         1 MOL         0.0000
     61 H23         1.1539   -4.6178   -9.2842 H         1 MOL         0.0000
     62 H24         1.6253   -2.3896   -5.7540 H         1 MOL         0.0000
     63 H25         1.4175   -1.4903   -7.2635 H         1 MOL         0.0000
     64 H26        -0.6480   -4.2970   -7.9579 H         1 MOL         0.0000
     65 H27        -0.6095   -2.6164   -7.4058 H         1 MOL         0.0000
     66 H28        -0.2364   -5.9179    0.9903 H         1 MOL         0.0000
     67 H29        -1.5825   -4.8400    0.6186 H         1 MOL         0.0000
     68 H30         2.5080   -3.7953   -2.1945 H         1 MOL         0.0000
     69 H31         2.3126   -5.1677   -3.3097 H         1 MOL         0.0000
     70 H32        -2.8076   -6.8369   -0.3724 H         1 MOL         0.0000
     71 H33        -1.4090   -7.8317    0.0203 H         1 MOL         0.0000
     72 H34         3.8476   -2.7093   -3.7477 H         1 MOL         0.0000
     73 H35         1.6587   -4.4034   -6.9883 H         1 MOL         0.0000
@<TRIPOS>BOND
     1    1    2 ar
     2    1    3 ar
     3    2    4 ar
     4    3    7 ar
     5    4    9 ar
     6    5    6 ar
     7    5   10 ar
     8    6   11 ar
     9    7    9 ar
    10    7   13 1
    11    8   10 ar
    12    8   12 ar
    13    8   14 1
    14    9   25 1
    15   10   26 1
    16   11   12 ar
    17   11   38 1
    18   12   37 1
    19   13   30 am
    20   13   34 2
    21   14   32 1
    22   14   35 2
    23   15   27 1
    24   15   33 1
    25   15   36 2
    26   16   17 1
    27   16   18 1
    28   17   19 1
    29   18   20 1
    30   19   22 1
    31   20   22 1
    32   21   23 1
    33   21   37 1
    34   22   28 1
    35   23   29 1
    36   23   38 1
    37   24   31 1
    38   25   31 1
    39   26   31 1
    40   27   29 1
    41   28   30 1
    42    1   39 1
    43    2   40 1
    44    3   41 1
    45    4   42 1
    46    5   43 1
    47    6   44 1
    48   16   45 1
    49   16   46 1
    50   17   47 1
    51   17   48 1
    52   18   49 1
    53   18   50 1
    54   19   51 1
    55   19   52 1
    56   20   53 1
    57   20   54 1
    58   21   55 1
    59   21   56 1
    60   22   57 1
    61   23   58 1
    62   24   59 1
    63   24   60 1
    64   24   61 1
    65   25   62 1
    66   25   63 1
    67   26   64 1
    68   26   65 1
    69   27   66 1
    70   27   67 1
    71   28   68 1
    72   28   69 1
    73   29   70 1
    74   29   71 1
    75   30   72 1
    76   31   73 1
