@<TRIPOS>MOLECULE
AVX38787_2
   73    76     0     0     0
SMALL
NO_CHARGES

@<TRIPOS>ATOM
      1 C1          7.1776   -0.9650   -5.7951 C.ar      1 MOL         0.0000
      2 C2          6.6211   -1.5123   -6.9511 C.ar      1 MOL         0.0000
      3 C3          6.3675   -0.2853   -4.8853 C.ar      1 MOL         0.0000
      4 C4          5.2545   -1.3799   -7.1974 C.ar      1 MOL         0.0000
      5 C5         -0.1820    1.0250   -6.1539 C.ar      1 MOL         0.0000
      6 C6         -0.7158    2.1828   -5.5877 C.ar      1 MOL         0.0000
      7 C7          5.0010   -0.1529   -5.1317 C.ar      1 MOL         0.0000
      8 C8         -0.1239   -0.0217   -3.9751 C.ar      1 MOL         0.0000
      9 C9          4.4444   -0.7002   -6.2877 C.ar      1 MOL         0.0000
     10 C10         0.1085   -0.0776   -5.3495 C.ar      1 MOL         0.0000
     11 C11        -0.9616    2.2341   -4.2154 C.ar      1 MOL         0.0000
     12 C12        -0.6456    1.1405   -3.4063 C.ar      1 MOL         0.0000
     13 C13         4.1782    0.5622   -4.1655 C.2       1 MOL         0.0000
     14 C14         0.1937   -1.1878   -3.1256 C.2       1 MOL         0.0000
     15 C15        -4.6648    4.8013   -2.9718 C.2       1 MOL         0.0000
     16 C16         5.3303    5.6043   -0.8440 C.3       1 MOL         0.0000
     17 C17         6.1662    4.7756   -1.8144 C.3       1 MOL         0.0000
     18 C18         4.1710    4.7957   -0.2702 C.3       1 MOL         0.0000
     19 C19         5.3071    4.1664   -2.9200 C.3       1 MOL         0.0000
     20 C20         3.3085    4.1863   -1.3732 C.3       1 MOL         0.0000
     21 C21        -1.0358    2.4630   -1.5379 C.3       1 MOL         0.0000
     22 C22         4.1448    3.3446   -2.3465 C.3       1 MOL         0.0000
     23 C23        -2.0401    3.2140   -2.4021 C.3       1 MOL         0.0000
     24 C24         2.5616   -2.9229   -5.8698 C.3       1 MOL         0.0000
     25 C25         2.9780   -0.5722   -6.5780 C.3       1 MOL         0.0000
     26 C26         0.6722   -1.3049   -5.9890 C.3       1 MOL         0.0000
     27 C27        -3.2674    5.3855   -2.7334 C.3       1 MOL         0.0000
     28 C28         3.2700    2.7907   -3.4695 C.3       1 MOL         0.0000
     29 C29        -2.3373    4.5940   -1.8341 C.3       1 MOL         0.0000
     30 N1          4.0338    1.9406   -4.3543 N.am      1 MOL         0.0000
     31 N2          2.1268   -1.4859   -5.7336 N.4       1 MOL         0.0000
     32 O1         -0.7176   -2.0733   -2.9323 O.co2     1 MOL         0.0000
     33 O2         -5.2028    5.0649   -4.0820 O.co2     1 MOL         0.0000
     34 O3          3.6562   -0.0428   -3.2139 O.2       1 MOL         0.0000
     35 O4          1.3689   -1.2720   -2.6122 O.co2     1 MOL         0.0000
     36 O5         -5.1057    4.1044   -2.0127 O.co2     1 MOL         0.0000
     37 O6         -0.8333    1.1417   -2.0493 O.3       1 MOL         0.0000
     38 O7         -1.5063    3.3902   -3.7214 O.3       1 MOL         0.0000
     39 H1          8.2417   -1.0679   -5.6027 H         1 MOL         0.0000
     40 H2          7.2524   -2.0411   -7.6592 H         1 MOL         0.0000
     41 H3          6.8134    0.1376   -3.9887 H         1 MOL         0.0000
     42 H4          4.8309   -1.8105   -8.1009 H         1 MOL         0.0000
     43 H5         -0.0000    0.9902   -7.2249 H         1 MOL         0.0000
     44 H6         -0.9486    3.0330   -6.2230 H         1 MOL         0.0000
     45 H7          5.9652    5.9685   -0.0284 H         1 MOL         0.0000
     46 H8          4.9371    6.4869   -1.3635 H         1 MOL         0.0000
     47 H9          6.9464    5.4047   -2.2578 H         1 MOL         0.0000
     48 H10         6.6760    3.9743   -1.2653 H         1 MOL         0.0000
     49 H11         4.5646    3.9956    0.3689 H         1 MOL         0.0000
     50 H12         3.5540    5.4389    0.3676 H         1 MOL         0.0000
     51 H13         4.9171    4.9706   -3.5572 H         1 MOL         0.0000
     52 H14         5.9346    3.5327   -3.5581 H         1 MOL         0.0000
     53 H15         2.5257    3.5667   -0.9195 H         1 MOL         0.0000
     54 H16         2.7994    4.9917   -1.9182 H         1 MOL         0.0000
     55 H17        -0.0647    2.9730   -1.5019 H         1 MOL         0.0000
     56 H18        -1.4058    2.3638   -0.5118 H         1 MOL         0.0000
     57 H19         4.5558    2.4862   -1.8041 H         1 MOL         0.0000
     58 H20        -2.9776    2.6479   -2.4880 H         1 MOL         0.0000
     59 H21         2.3823   -3.2295   -6.9019 H         1 MOL         0.0000
     60 H22         3.6237   -2.9754   -5.6234 H         1 MOL         0.0000
     61 H23         1.9674   -3.5190   -5.1746 H         1 MOL         0.0000
     62 H24         2.6251    0.4478   -6.3916 H         1 MOL         0.0000
     63 H25         2.7591   -0.8153   -7.6233 H         1 MOL         0.0000
     64 H26         0.1775   -2.2130   -5.6214 H         1 MOL         0.0000
     65 H27         0.5493   -1.2821   -7.0794 H         1 MOL         0.0000
     66 H28        -3.4228    6.3681   -2.2704 H         1 MOL         0.0000
     67 H29        -2.7920    5.5609   -3.7066 H         1 MOL         0.0000
     68 H30         2.8525    3.6059   -4.0680 H         1 MOL         0.0000
     69 H31         2.4475    2.1950   -3.0628 H         1 MOL         0.0000
     70 H32        -2.7491    4.4696   -0.8340 H         1 MOL         0.0000
     71 H33        -1.3845    5.1146   -1.7405 H         1 MOL         0.0000
     72 H34         4.5336    2.3938   -5.1123 H         1 MOL         0.0000
     73 H35         2.3065   -1.2218   -4.7511 H         1 MOL         0.0000
@<TRIPOS>BOND
     1    1    2 ar
     2    1    3 ar
     3    2    4 ar
     4    3    7 ar
     5    4    9 ar
     6    5    6 ar
     7    5   10 ar
     8    6   11 ar
     9    7    9 ar
    10    7   13 1
    11    8   10 ar
    12    8   12 ar
    13    8   14 1
    14    9   25 1
    15   10   26 1
    16   11   12 ar
    17   11   38 1
    18   12   37 1
    19   13   30 am
    20   13   34 2
    21   14   32 1
    22   14   35 2
    23   15   27 1
    24   15   33 1
    25   15   36 2
    26   16   17 1
    27   16   18 1
    28   17   19 1
    29   18   20 1
    30   19   22 1
    31   20   22 1
    32   21   23 1
    33   21   37 1
    34   22   28 1
    35   23   29 1
    36   23   38 1
    37   24   31 1
    38   25   31 1
    39   26   31 1
    40   27   29 1
    41   28   30 1
    42    1   39 1
    43    2   40 1
    44    3   41 1
    45    4   42 1
    46    5   43 1
    47    6   44 1
    48   16   45 1
    49   16   46 1
    50   17   47 1
    51   17   48 1
    52   18   49 1
    53   18   50 1
    54   19   51 1
    55   19   52 1
    56   20   53 1
    57   20   54 1
    58   21   55 1
    59   21   56 1
    60   22   57 1
    61   23   58 1
    62   24   59 1
    63   24   60 1
    64   24   61 1
    65   25   62 1
    66   25   63 1
    67   26   64 1
    68   26   65 1
    69   27   66 1
    70   27   67 1
    71   28   68 1
    72   28   69 1
    73   29   70 1
    74   29   71 1
    75   30   72 1
    76   31   73 1
