@<TRIPOS>MOLECULE
AVX38743_2
   47    50     0     0     0
SMALL
NO_CHARGES

@<TRIPOS>ATOM
      1 C1         -1.7017    4.5341    0.7733 C.ar      1 MOL         0.0000
      2 C2         -2.6518    4.5580    1.8042 C.ar      1 MOL         0.0000
      3 C3         -1.1331    3.3276    0.3569 C.ar      1 MOL         0.0000
      4 C4         -0.3020   -1.7261   -1.2528 C.ar      1 MOL         0.0000
      5 C5         -3.0452    3.3757    2.4326 C.ar      1 MOL         0.0000
      6 C6          0.0112   -3.0685   -1.4676 C.ar      1 MOL         0.0000
      7 C7         -1.5307    2.1547    0.9836 C.ar      1 MOL         0.0000
      8 C8          0.2425   -1.0462   -0.1627 C.ar      1 MOL         0.0000
      9 C9          1.0932   -1.7097    0.7217 C.ar      1 MOL         0.0000
     10 C10        -2.4821    2.1807    2.0082 C.ar      1 MOL         0.0000
     11 C11         0.8723   -3.7291   -0.5910 C.ar      1 MOL         0.0000
     12 C12         1.3955   -3.0559    0.5152 C.ar      1 MOL         0.0000
     13 C13        -1.1258    0.7700    0.7563 C.2       1 MOL         0.0000
     14 C14        -0.1048    0.3577    0.0208 C.2       1 MOL         0.0000
     15 C15         1.6672   -0.9981    1.8845 C.2       1 MOL         0.0000
     16 C16         2.0403   -5.5506    4.4146 C.2       1 MOL         0.0000
     17 C17        -2.7315    0.8174    2.5835 C.3       1 MOL         0.0000
     18 C18         2.2907   -5.5081   -0.1269 C.3       1 MOL         0.0000
     19 C19        -2.0463   -0.1121    1.5665 C.3       1 MOL         0.0000
     20 C20         2.1777   -5.0885    1.3327 C.3       1 MOL         0.0000
     21 C21         3.2755   -5.1582    3.5955 C.3       1 MOL         0.0000
     22 C22         3.3286   -5.6428    2.1594 C.3       1 MOL         0.0000
     23 O1          2.7937   -0.3982    1.7404 O.co2     1 MOL         0.0000
     24 O2          1.6859   -4.7455    5.3188 O.co2     1 MOL         0.0000
     25 O3          1.0162   -1.0089    2.9916 O.co2     1 MOL         0.0000
     26 O4          1.5141   -6.6467    4.0660 O.co2     1 MOL         0.0000
     27 O5          1.1574   -5.0406   -0.8656 O.3       1 MOL         0.0000
     28 O6          2.2195   -3.6582    1.4292 O.3       1 MOL         0.0000
     29 O7         -3.0237   -0.6714    0.6932 O.3       1 MOL         0.0000
     30 H1         -1.4054    5.4632    0.2941 H         1 MOL         0.0000
     31 H2         -3.0810    5.5060    2.1172 H         1 MOL         0.0000
     32 H3         -0.4007    3.3247   -0.4438 H         1 MOL         0.0000
     33 H4         -0.9696   -1.2230   -1.9485 H         1 MOL         0.0000
     34 H5         -3.7725    3.3973    3.2373 H         1 MOL         0.0000
     35 H6         -0.4102   -3.5881   -2.3239 H         1 MOL         0.0000
     36 H7          0.5333    1.0822   -0.4546 H         1 MOL         0.0000
     37 H8         -2.2427    0.7498    3.5619 H         1 MOL         0.0000
     38 H9         -3.8027    0.6165    2.6828 H         1 MOL         0.0000
     39 H10         3.1992   -5.1111   -0.5980 H         1 MOL         0.0000
     40 H11         2.3121   -6.5993   -0.2161 H         1 MOL         0.0000
     41 H12        -1.5169   -0.9313    2.0648 H         1 MOL         0.0000
     42 H13         1.2260   -5.4301    1.7619 H         1 MOL         0.0000
     43 H14         4.1388   -5.5833    4.1229 H         1 MOL         0.0000
     44 H15         3.3843   -4.0669    3.6295 H         1 MOL         0.0000
     45 H16         3.3008   -6.7293    2.0967 H         1 MOL         0.0000
     46 H17         4.2523   -5.3046    1.6904 H         1 MOL         0.0000
     47 H18        -3.5966   -1.2299    1.2412 H         1 MOL         0.0000
@<TRIPOS>BOND
     1    1    2 ar
     2    1    3 ar
     3    2    5 ar
     4    3    7 ar
     5    4    6 ar
     6    4    8 ar
     7    5   10 ar
     8    6   11 ar
     9    7   10 ar
    10    7   13 1
    11    8    9 ar
    12    8   14 1
    13    9   12 ar
    14    9   15 1
    15   10   17 1
    16   11   12 ar
    17   11   27 1
    18   12   28 1
    19   13   14 2
    20   13   19 1
    21   15   23 1
    22   15   25 2
    23   16   21 1
    24   16   24 1
    25   16   26 2
    26   17   19 1
    27   18   20 1
    28   18   27 1
    29   19   29 1
    30   20   22 1
    31   20   28 1
    32   21   22 1
    33    1   30 1
    34    2   31 1
    35    3   32 1
    36    4   33 1
    37    5   34 1
    38    6   35 1
    39   14   36 1
    40   17   37 1
    41   17   38 1
    42   18   39 1
    43   18   40 1
    44   19   41 1
    45   20   42 1
    46   21   43 1
    47   21   44 1
    48   22   45 1
    49   22   46 1
    50   29   47 1
