AVX38743_5
  -OEChem-04011314573D

 47 50  0     1  0  0  0  0  0999 V2000
    2.0531    3.3397    2.1004 C   0  0  0  0  0  0  0  0  0  0  0  0
    1.2800    4.0847    3.0021 C   0  0  0  0  0  0  0  0  0  0  0  0
    1.5159    2.2226    1.4555 C   0  0  0  0  0  0  0  0  0  0  0  0
    2.0374   -0.6827   -0.1485 C   0  0  0  0  0  0  0  0  0  0  0  0
   -0.0406    3.7221    3.2706 C   0  0  0  0  0  0  0  0  0  0  0  0
    3.2357   -0.6019   -0.8584 C   0  0  0  0  0  0  0  0  0  0  0  0
    0.2026    1.8652    1.7286 C   0  0  0  0  0  0  0  0  0  0  0  0
    0.9303    0.0616   -0.5572 C   0  0  0  0  0  0  0  0  0  0  0  0
    1.0149    0.8804   -1.6836 C   0  0  0  0  0  0  0  0  0  0  0  0
   -0.5647    2.6069    2.6326 C   0  0  0  0  0  0  0  0  0  0  0  0
    3.3251    0.2272   -1.9768 C   0  0  0  0  0  0  0  0  0  0  0  0
    2.2088    0.9508   -2.4020 C   0  0  0  0  0  0  0  0  0  0  0  0
   -0.6056    0.7584    1.2234 C   0  0  0  0  0  0  0  0  0  0  0  0
   -0.3002   -0.0463    0.2173 C   0  0  0  0  0  0  0  0  0  0  0  0
   -0.1573    1.6655   -2.1283 C   0  0  0  0  0  0  0  0  0  0  0  0
    2.2207    3.7366   -7.3730 C   0  0  0  0  0  0  0  0  0  0  0  0
   -1.9667    2.0850    2.7503 C   0  0  0  0  0  0  0  0  0  0  0  0
    4.6158    1.3962   -3.5122 C   0  0  0  0  0  0  0  0  0  0  0  0
   -1.8908    0.7331    2.0175 C   0  0  2  0  0  0  0  0  0  0  0  0
    3.3513    1.4892   -4.3561 C   0  0  2  0  0  0  0  0  0  0  0  0
    2.2296    2.6637   -6.2778 C   0  0  0  0  0  0  0  0  0  0  0  0
    3.4455    2.6178   -5.3724 C   0  0  0  0  0  0  0  0  0  0  0  0
   -0.9723    1.1292   -2.9635 O   0  5  0  0  0  0  0  0  0  0  0  0
    1.2051    3.7689   -8.1206 O   0  5  0  0  0  0  0  0  0  0  0  0
   -0.3126    2.8519   -1.6615 O   0  0  0  0  0  0  0  0  0  0  0  0
    3.2461    4.4772   -7.3814 O   0  0  0  0  0  0  0  0  0  0  0  0
    4.5336    0.2805   -2.6198 O   0  0  0  0  0  0  0  0  0  0  0  0
    2.2239    1.7559   -3.5104 O   0  0  0  0  0  0  0  0  0  0  0  0
   -1.8134   -0.3239    2.9708 O   0  0  0  0  0  0  0  0  0  0  0  0
    3.0798    3.6352    1.9017 H   0  0  0  0  0  0  0  0  0  0  0  0
    1.7123    4.9529    3.4920 H   0  0  0  0  0  0  0  0  0  0  0  0
    2.1279    1.6547    0.7625 H   0  0  0  0  0  0  0  0  0  0  0  0
    1.9849   -1.3283    0.7252 H   0  0  0  0  0  0  0  0  0  0  0  0
   -0.6410    4.3053    3.9610 H   0  0  0  0  0  0  0  0  0  0  0  0
    4.0957   -1.1781   -0.5283 H   0  0  0  0  0  0  0  0  0  0  0  0
   -0.9956   -0.8118   -0.0799 H   0  0  0  0  0  0  0  0  0  0  0  0
   -2.2682    1.9815    3.7972 H   0  0  0  0  0  0  0  0  0  0  0  0
   -2.6447    2.7695    2.2286 H   0  0  0  0  0  0  0  0  0  0  0  0
    5.4951    1.2440   -4.1469 H   0  0  0  0  0  0  0  0  0  0  0  0
    4.7792    2.3046   -2.9181 H   0  0  0  0  0  0  0  0  0  0  0  0
   -2.7719    0.5681    1.3883 H   0  0  0  0  0  0  0  0  0  0  0  0
    3.1652    0.5431   -4.8818 H   0  0  0  0  0  0  0  0  0  0  0  0
    2.1632    1.6987   -6.7960 H   0  0  0  0  0  0  0  0  0  0  0  0
    1.3167    2.7695   -5.6784 H   0  0  0  0  0  0  0  0  0  0  0  0
    3.5840    3.5524   -4.8317 H   0  0  0  0  0  0  0  0  0  0  0  0
    4.3410    2.4399   -5.9671 H   0  0  0  0  0  0  0  0  0  0  0  0
   -2.6492   -0.3139    3.4623 H   0  0  0  0  0  0  0  0  0  0  0  0
  1  2  1  0  0  0  0
  1  3  2  0  0  0  0
  2  5  2  0  0  0  0
  3  7  1  0  0  0  0
  4  6  2  0  0  0  0
  4  8  1  0  0  0  0
  5 10  1  0  0  0  0
  6 11  1  0  0  0  0
  7 10  2  0  0  0  0
  7 13  1  0  0  0  0
  8  9  2  0  0  0  0
  8 14  1  0  0  0  0
  9 12  1  0  0  0  0
  9 15  1  0  0  0  0
 10 17  1  0  0  0  0
 11 12  2  0  0  0  0
 11 27  1  0  0  0  0
 12 28  1  0  0  0  0
 13 14  2  0  0  0  0
 13 19  1  0  0  0  0
 15 23  1  0  0  0  0
 15 25  2  0  0  0  0
 16 21  1  0  0  0  0
 16 24  1  0  0  0  0
 16 26  2  0  0  0  0
 17 19  1  0  0  0  0
 18 20  1  0  0  0  0
 18 27  1  0  0  0  0
 19 29  1  0  0  0  0
 20 22  1  0  0  0  0
 20 28  1  0  0  0  0
 21 22  1  0  0  0  0
  1 30  1  0  0  0  0
  2 31  1  0  0  0  0
  3 32  1  0  0  0  0
  4 33  1  0  0  0  0
  5 34  1  0  0  0  0
  6 35  1  0  0  0  0
 14 36  1  0  0  0  0
 17 37  1  0  0  0  0
 17 38  1  0  0  0  0
 18 39  1  0  0  0  0
 18 40  1  0  0  0  0
 19 41  1  0  0  0  0
 20 42  1  0  0  0  0
 21 43  1  0  0  0  0
 21 44  1  0  0  0  0
 22 45  1  0  0  0  0
 22 46  1  0  0  0  0
 29 47  1  0  0  0  0
M  CHG  2  23  -1  24  -1
M  END
$$$$
