@<TRIPOS>MOLECULE
AVX38785_1
   67    70     0     0     0
SMALL
NO_CHARGES

@<TRIPOS>ATOM
      1 C1          5.3181    2.7037    4.1364 C.ar      1 MOL         0.0000
      2 C2          1.1315   -4.9555    5.1679 C.ar      1 MOL         0.0000
      3 C3          5.8099    1.7184    3.2804 C.ar      1 MOL         0.0000
      4 C4          4.9227    2.3686    5.4314 C.ar      1 MOL         0.0000
      5 C5          0.5851   -5.0961    3.8923 C.ar      1 MOL         0.0000
      6 C6          2.3769   -4.3486    5.3302 C.ar      1 MOL         0.0000
      7 C7          5.9061    0.3979    3.7193 C.ar      1 MOL         0.0000
      8 C8          5.0189    1.0481    5.8703 C.ar      1 MOL         0.0000
      9 C9          1.2841   -4.6299    2.7789 C.ar      1 MOL         0.0000
     10 C10         1.9001    0.5437   -0.2746 C.ar      1 MOL         0.0000
     11 C11         1.8195    1.9323   -0.3816 C.ar      1 MOL         0.0000
     12 C12         3.0759   -3.8823    4.2169 C.ar      1 MOL         0.0000
     13 C13         1.6291    0.7062    2.1225 C.ar      1 MOL         0.0000
     14 C14         5.5106    0.0627    5.0143 C.ar      1 MOL         0.0000
     15 C15         2.5296   -4.0229    2.9412 C.ar      1 MOL         0.0000
     16 C16         1.8106   -0.0681    0.9763 C.ar      1 MOL         0.0000
     17 C17         1.6519    2.7080    0.7658 C.ar      1 MOL         0.0000
     18 C18         1.5346    2.0939    2.0146 C.ar      1 MOL         0.0000
     19 C19         4.3747   -3.2531    4.4147 C.2       1 MOL         0.0000
     20 C20         1.5255    0.0541    3.4440 C.2       1 MOL         0.0000
     21 C21         2.0703    8.3713    0.2936 C.2       1 MOL         0.0000
     22 C22         0.9110    4.1406    2.9160 C.3       1 MOL         0.0000
     23 C23         1.7808    4.7701    1.8358 C.3       1 MOL         0.0000
     24 C24         4.3854   -1.5239    0.7699 C.3       1 MOL         0.0000
     25 C25         5.6137   -1.3585    5.4872 C.3       1 MOL         0.0000
     26 C26         3.2598   -3.5311    1.7264 C.3       1 MOL         0.0000
     27 C27         1.9102   -1.5568    1.0567 C.3       1 MOL         0.0000
     28 C28         2.3222    6.8884    0.5909 C.3       1 MOL         0.0000
     29 C29         1.4048    6.2256    1.6004 C.3       1 MOL         0.0000
     30 N1          4.4077   -2.1075    5.2164 N.am      1 MOL         0.0000
     31 N2          3.2198   -2.0313    1.5800 N.4       1 MOL         0.0000
     32 O1          0.3630   -0.2933    3.8681 O.co2     1 MOL         0.0000
     33 O2          2.8369    8.9144   -0.5483 O.co2     1 MOL         0.0000
     34 O3          5.3891   -3.7192    3.8688 O.2       1 MOL         0.0000
     35 O4          2.6017   -0.1405    4.1192 O.co2     1 MOL         0.0000
     36 O5          1.0989    8.8701    0.9320 O.co2     1 MOL         0.0000
     37 O6          1.3356    2.7983    3.1727 O.3       1 MOL         0.0000
     38 O7          1.6005    4.0668    0.5988 O.3       1 MOL         0.0000
     39 H1          5.2445    3.7321    3.7950 H         1 MOL         0.0000
     40 H2          0.5875   -5.3183    6.0354 H         1 MOL         0.0000
     41 H3          6.1189    1.9793    2.2724 H         1 MOL         0.0000
     42 H4          4.5408    3.1357    6.0986 H         1 MOL         0.0000
     43 H5         -0.3845   -5.5691    3.7665 H         1 MOL         0.0000
     44 H6          2.7924   -4.2459    6.3295 H         1 MOL         0.0000
     45 H7          6.2903   -0.3633    3.0453 H         1 MOL         0.0000
     46 H8          4.7083    0.7962    6.8809 H         1 MOL         0.0000
     47 H9          0.8492   -4.7440    1.7895 H         1 MOL         0.0000
     48 H10         2.0378   -0.0532   -1.1724 H         1 MOL         0.0000
     49 H11         1.9014    2.4009   -1.3585 H         1 MOL         0.0000
     50 H12         0.9968    4.6964    3.8557 H         1 MOL         0.0000
     51 H13        -0.1482    4.1201    2.6287 H         1 MOL         0.0000
     52 H14         2.8432    4.7094    2.1086 H         1 MOL         0.0000
     53 H15         4.2862   -1.9202   -0.2423 H         1 MOL         0.0000
     54 H16         4.3430   -0.4330    0.7704 H         1 MOL         0.0000
     55 H17         5.3020   -1.8813    1.2432 H         1 MOL         0.0000
     56 H18         6.4467   -1.8704    4.9932 H         1 MOL         0.0000
     57 H19         5.7993   -1.4013    6.5656 H         1 MOL         0.0000
     58 H20         4.3170   -3.8159    1.7575 H         1 MOL         0.0000
     59 H21         2.8287   -3.9482    0.8099 H         1 MOL         0.0000
     60 H22         1.1417   -1.9760    1.7187 H         1 MOL         0.0000
     61 H23         1.7836   -2.0217    0.0706 H         1 MOL         0.0000
     62 H24         3.3465    6.8251    0.9795 H         1 MOL         0.0000
     63 H25         2.3036    6.3347   -0.3563 H         1 MOL         0.0000
     64 H26         0.3630    6.2618    1.2867 H         1 MOL         0.0000
     65 H27         1.4828    6.7361    2.5599 H         1 MOL         0.0000
     66 H28         3.5396   -1.7339    5.5859 H         1 MOL         0.0000
     67 H29         3.3376   -1.6429    2.5301 H         1 MOL         0.0000
@<TRIPOS>BOND
     1    1    3 ar
     2    1    4 ar
     3    2    5 ar
     4    2    6 ar
     5    3    7 ar
     6    4    8 ar
     7    5    9 ar
     8    6   12 ar
     9    7   14 ar
    10    8   14 ar
    11    9   15 ar
    12   10   11 ar
    13   10   16 ar
    14   11   17 ar
    15   12   15 ar
    16   12   19 1
    17   13   16 ar
    18   13   18 ar
    19   13   20 1
    20   14   25 1
    21   15   26 1
    22   16   27 1
    23   17   18 ar
    24   17   38 1
    25   18   37 1
    26   19   30 am
    27   19   34 2
    28   20   32 1
    29   20   35 2
    30   21   28 1
    31   21   33 1
    32   21   36 2
    33   22   23 1
    34   22   37 1
    35   23   29 1
    36   23   38 1
    37   24   31 1
    38   25   30 1
    39   26   31 1
    40   27   31 1
    41   28   29 1
    42    1   39 1
    43    2   40 1
    44    3   41 1
    45    4   42 1
    46    5   43 1
    47    6   44 1
    48    7   45 1
    49    8   46 1
    50    9   47 1
    51   10   48 1
    52   11   49 1
    53   22   50 1
    54   22   51 1
    55   23   52 1
    56   24   53 1
    57   24   54 1
    58   24   55 1
    59   25   56 1
    60   25   57 1
    61   26   58 1
    62   26   59 1
    63   27   60 1
    64   27   61 1
    65   28   62 1
    66   28   63 1
    67   29   64 1
    68   29   65 1
    69   30   66 1
    70   31   67 1
