@<TRIPOS>MOLECULE
AVX38789_0
   64    67     0     0     0
SMALL
NO_CHARGES

@<TRIPOS>ATOM
      1 C1          7.8446   -2.2153    3.6688 C.ar      1 MOL         0.0000
      2 C2          7.7894   -1.6561    2.3922 C.ar      1 MOL         0.0000
      3 C3          3.3820   -2.5352    9.7667 C.2       1 MOL         0.0000
      4 C4          6.6785   -2.3491    4.4227 C.ar      1 MOL         0.0000
      5 C5          6.5682   -1.2306    1.8694 C.ar      1 MOL         0.0000
      6 C6          0.7254    0.2021    2.3555 C.ar      1 MOL         0.0000
      7 C7         -0.1548    0.6082    3.3587 C.ar      1 MOL         0.0000
      8 C8          2.6626   -2.5817    8.5487 C.2       1 MOL         0.0000
      9 C9          4.2244   -1.4520    9.6717 C.2       1 MOL         0.0000
     10 C10         5.4574   -1.9235    3.8998 C.ar      1 MOL         0.0000
     11 C11         0.2950   -2.1126    2.9057 C.ar      1 MOL         0.0000
     12 C12         5.4022   -1.3643    2.6232 C.ar      1 MOL         0.0000
     13 C13         0.9542   -1.1562    2.1330 C.ar      1 MOL         0.0000
     14 C14        -0.8037   -0.3475    4.1410 C.ar      1 MOL         0.0000
     15 C15        -0.5959   -1.7074    3.8999 C.ar      1 MOL         0.0000
     16 C16         3.1165   -1.5234    7.7963 C.2       1 MOL         0.0000
     17 C17         4.2553   -2.0742    4.7086 C.2       1 MOL         0.0000
     18 C18         0.5328   -3.5499    2.6608 C.2       1 MOL         0.0000
     19 C19        -3.7903    1.4221    8.6598 C.2       1 MOL         0.0000
     20 C20        -2.3510   -2.1886    5.3414 C.3       1 MOL         0.0000
     21 C21        -1.9702   -0.9089    6.0743 C.3       1 MOL         0.0000
     22 C22         3.9388   -2.9292    0.6058 C.3       1 MOL         0.0000
     23 C23         4.1025   -0.8977    2.0366 C.3       1 MOL         0.0000
     24 C24         1.9102   -1.5568    1.0567 C.3       1 MOL         0.0000
     25 C25         2.7715   -1.0148    6.4265 C.3       1 MOL         0.0000
     26 C26        -2.7256    0.8288    7.7296 C.3       1 MOL         0.0000
     27 C27        -3.1217   -0.3948    6.9259 C.3       1 MOL         0.0000
     28 N1          3.9188   -1.0069    5.5476 N.am      1 MOL         0.0000
     29 N2          3.2198   -2.0313    1.5800 N.4       1 MOL         0.0000
     30 O1         -0.2186   -4.1617    1.8164 O.co2     1 MOL         0.0000
     31 O2         -3.4530    2.4406    9.3234 O.co2     1 MOL         0.0000
     32 O3          3.5875   -3.1207    4.6539 O.2       1 MOL         0.0000
     33 O4          1.4818   -4.1335    3.3017 O.co2     1 MOL         0.0000
     34 O5         -4.8982    0.8123    8.6349 O.co2     1 MOL         0.0000
     35 O6          4.0686   -0.8298    8.4737 O.3       1 MOL         0.0000
     36 O7         -1.2284   -2.6928    4.6111 O.3       1 MOL         0.0000
     37 O8         -1.6399    0.1130    5.1236 O.3       1 MOL         0.0000
     38 H1          8.7953   -2.5471    4.0764 H         1 MOL         0.0000
     39 H2          8.6977   -1.5520    1.8058 H         1 MOL         0.0000
     40 H3          3.2975   -3.2073   10.6083 H         1 MOL         0.0000
     41 H4          6.7349   -2.7855    5.4167 H         1 MOL         0.0000
     42 H5          6.5362   -0.7967    0.8734 H         1 MOL         0.0000
     43 H6          1.2325    0.9530    1.7552 H         1 MOL         0.0000
     44 H7         -0.3184    1.6682    3.5324 H         1 MOL         0.0000
     45 H8          1.9081   -3.2989    8.2584 H         1 MOL         0.0000
     46 H9          4.9567   -1.0144   10.3341 H         1 MOL         0.0000
     47 H10        -2.6558   -2.9654    6.0505 H         1 MOL         0.0000
     48 H11        -3.1779   -2.0271    4.6379 H         1 MOL         0.0000
     49 H12        -1.0920   -1.0742    6.7133 H         1 MOL         0.0000
     50 H13         4.1510   -2.3457   -0.2920 H         1 MOL         0.0000
     51 H14         4.8614   -3.2674    1.0814 H         1 MOL         0.0000
     52 H15         3.2819   -3.7714    0.3802 H         1 MOL         0.0000
     53 H16         3.5229   -0.3219    2.7661 H         1 MOL         0.0000
     54 H17         4.2697   -0.2579    1.1634 H         1 MOL         0.0000
     55 H18         1.5069   -2.3734    0.4444 H         1 MOL         0.0000
     56 H19         2.1307   -0.7189    0.3831 H         1 MOL         0.0000
     57 H20         1.9983   -1.6395    5.9661 H         1 MOL         0.0000
     58 H21         2.3790    0.0064    6.4738 H         1 MOL         0.0000
     59 H22        -1.8822    0.5467    8.3724 H         1 MOL         0.0000
     60 H23        -2.3675    1.6205    7.0595 H         1 MOL         0.0000
     61 H24        -3.9668   -0.1933    6.2701 H         1 MOL         0.0000
     62 H25        -3.4069   -1.2019    7.6002 H         1 MOL         0.0000
     63 H26         4.5344   -0.2019    5.5995 H         1 MOL         0.0000
     64 H27         3.0316   -2.6060    2.4177 H         1 MOL         0.0000
@<TRIPOS>BOND
     1    1    2 ar
     2    1    4 ar
     3    2    5 ar
     4    3    8 1
     5    3    9 2
     6    4   10 ar
     7    5   12 ar
     8    6    7 ar
     9    6   13 ar
    10    7   14 ar
    11    8   16 2
    12    9   35 1
    13   10   12 ar
    14   10   17 1
    15   11   13 ar
    16   11   15 ar
    17   11   18 1
    18   12   23 1
    19   13   24 1
    20   14   15 ar
    21   14   37 1
    22   15   36 1
    23   16   25 1
    24   16   35 1
    25   17   28 am
    26   17   32 2
    27   18   30 1
    28   18   33 2
    29   19   26 1
    30   19   31 1
    31   19   34 2
    32   20   21 1
    33   20   36 1
    34   21   27 1
    35   21   37 1
    36   22   29 1
    37   23   29 1
    38   24   29 1
    39   25   28 1
    40   26   27 1
    41    1   38 1
    42    2   39 1
    43    3   40 1
    44    4   41 1
    45    5   42 1
    46    6   43 1
    47    7   44 1
    48    8   45 1
    49    9   46 1
    50   20   47 1
    51   20   48 1
    52   21   49 1
    53   22   50 1
    54   22   51 1
    55   22   52 1
    56   23   53 1
    57   23   54 1
    58   24   55 1
    59   24   56 1
    60   25   57 1
    61   25   58 1
    62   26   59 1
    63   26   60 1
    64   27   61 1
    65   27   62 1
    66   28   63 1
    67   29   64 1
