@<TRIPOS>MOLECULE
AVX38719_0
   35    37     0     0     0
SMALL
NO_CHARGES

@<TRIPOS>ATOM
      1 C1         -9.3818   -0.4667   -1.6659 C.ar      1 MOL         0.0000
      2 C2         -9.0668    0.4869   -0.6979 C.ar      1 MOL         0.0000
      3 C3         -8.3740   -1.0133   -2.4604 C.ar      1 MOL         0.0000
      4 C4         -0.9828    1.8432   -0.5132 C.ar      1 MOL         0.0000
      5 C5         -2.1827    2.4837   -0.8519 C.ar      1 MOL         0.0000
      6 C6         -7.7439    0.8939   -0.5244 C.ar      1 MOL         0.0000
      7 C7         -7.0512   -0.6063   -2.2870 C.ar      1 MOL         0.0000
      8 C8         -0.9455    0.4696   -0.2604 C.ar      1 MOL         0.0000
      9 C9         -3.3574    1.7156   -0.9335 C.ar      1 MOL         0.0000
     10 C10        -6.7361    0.3473   -1.3190 C.ar      1 MOL         0.0000
     11 C11        -2.1012   -0.3134   -0.3361 C.ar      1 MOL         0.0000
     12 C12        -4.7209    1.9732   -1.2341 C.2       1 MOL         0.0000
     13 C13        -3.2786    0.3511   -0.6747 C.ar      1 MOL         0.0000
     14 C14        -5.3737    0.7659   -1.1396 C.2       1 MOL         0.0000
     15 C15        -2.0790   -1.7563   -0.0739 C.2       1 MOL         0.0000
     16 C16        -6.1867    5.5448   -0.6338 C.2       1 MOL         0.0000
     17 C17        -5.3180    3.2786   -1.5786 C.3       1 MOL         0.0000
     18 C18        -5.5321    4.1872   -0.3578 C.3       1 MOL         0.0000
     19 O1         -0.9592   -2.3181    0.2353 O.co2     1 MOL         0.0000
     20 O2         -6.3918    6.2382    0.4045 O.co2     1 MOL         0.0000
     21 O3         -3.1797   -2.4242   -0.1599 O.co2     1 MOL         0.0000
     22 O4         -6.4420    5.8163   -1.8388 O.co2     1 MOL         0.0000
     23 O5         -4.5075   -0.2244   -0.8009 O.3       1 MOL         0.0000
     24 H1        -10.4118   -0.7840   -1.8005 H         1 MOL         0.0000
     25 H2         -9.8517    0.9126   -0.0795 H         1 MOL         0.0000
     26 H3         -8.6192   -1.7566   -3.2134 H         1 MOL         0.0000
     27 H4         -0.0674    2.4258   -0.4462 H         1 MOL         0.0000
     28 H5         -2.1948    3.5522   -1.0446 H         1 MOL         0.0000
     29 H6         -7.5141    1.6362    0.2362 H         1 MOL         0.0000
     30 H7         -6.2772   -1.0411   -2.9149 H         1 MOL         0.0000
     31 H8          0.0054    0.0085   -0.0017 H         1 MOL         0.0000
     32 H9         -4.6886    3.8163   -2.3126 H         1 MOL         0.0000
     33 H10        -6.2885    3.1429   -2.0921 H         1 MOL         0.0000
     34 H11        -4.5647    4.3792    0.1241 H         1 MOL         0.0000
     35 H12        -6.1551    3.6633    0.3787 H         1 MOL         0.0000
@<TRIPOS>BOND
     1    1    2 ar
     2    1    3 ar
     3    2    6 ar
     4    3    7 ar
     5    4    5 ar
     6    4    8 ar
     7    5    9 ar
     8    6   10 ar
     9    7   10 ar
    10    8   11 ar
    11    9   12 1
    12    9   13 ar
    13   10   14 1
    14   11   13 ar
    15   11   15 1
    16   12   14 2
    17   12   17 1
    18   13   23 1
    19   14   23 1
    20   15   19 1
    21   15   21 2
    22   16   18 1
    23   16   20 1
    24   16   22 2
    25   17   18 1
    26    1   24 1
    27    2   25 1
    28    3   26 1
    29    4   27 1
    30    5   28 1
    31    6   29 1
    32    7   30 1
    33    8   31 1
    34   17   32 1
    35   17   33 1
    36   18   34 1
    37   18   35 1
