@<TRIPOS>MOLECULE
AVX38674_1
   59    62     0     0     0
SMALL
NO_CHARGES

@<TRIPOS>ATOM
      1 C1          2.4183   -4.8137    4.5410 C.ar      1 MOL         0.0000
      2 C2          3.8681    1.3155    2.0065 C.ar      1 MOL         0.0000
      3 C3          2.7913   -5.0435    3.2167 C.ar      1 MOL         0.0000
      4 C4          1.1725   -4.2557    4.8279 C.ar      1 MOL         0.0000
      5 C5          2.5716    1.1736    2.5010 C.ar      1 MOL         0.0000
      6 C6          4.1872    0.8327    0.7373 C.ar      1 MOL         0.0000
      7 C7          1.9185   -4.7152    2.1794 C.ar      1 MOL         0.0000
      8 C8          0.2997   -3.9274    3.7906 C.ar      1 MOL         0.0000
      9 C9          1.5942    0.5488    1.7264 C.ar      1 MOL         0.0000
     10 C10         3.2098    0.2080   -0.0373 C.ar      1 MOL         0.0000
     11 C11        -1.7430    0.5617   -5.4313 C.ar      1 MOL         0.0000
     12 C12        -2.5985    0.0461   -6.4079 C.ar      1 MOL         0.0000
     13 C13        -0.2687    1.4716   -7.1421 C.ar      1 MOL         0.0000
     14 C14         0.6726   -4.1572    2.4663 C.ar      1 MOL         0.0000
     15 C15         1.9133    0.0660    0.4572 C.ar      1 MOL         0.0000
     16 C16        -0.5848    1.2704   -5.7963 C.ar      1 MOL         0.0000
     17 C17        -2.2635    0.2587   -7.7294 C.ar      1 MOL         0.0000
     18 C18        -1.1299    0.9524   -8.0867 C.ar      1 MOL         0.0000
     19 C19         0.9369    2.2106   -7.5501 C.2       1 MOL         0.0000
     20 C20         0.8107   -2.1139   -0.1327 C.2       1 MOL         0.0000
     21 C21         0.5136    0.6885   -2.4731 C.2       1 MOL         0.0000
     22 C22        -2.1571    0.3378   -9.8891 C.3       1 MOL         0.0000
     23 C23         1.6473   -0.2595   -4.4964 C.3       1 MOL         0.0000
     24 C24        -0.2672   -3.8034    1.3502 C.3       1 MOL         0.0000
     25 C25         0.3032    1.8051   -4.7101 C.3       1 MOL         0.0000
     26 C26         0.8551   -0.6111   -0.3823 C.3       1 MOL         0.0000
     27 N1         -0.0702   -2.4489    0.8861 N.am      1 MOL         0.0000
     28 N2          1.0674   -0.3942   -1.7956 N.am      1 MOL         0.0000
     29 N3          0.8120    0.7420   -3.8470 N.am      1 MOL         0.0000
     30 O1          0.8559    3.4852   -7.7165 O.co2     1 MOL         0.0000
     31 O2          2.0333    1.5585   -7.7277 O.co2     1 MOL         0.0000
     32 O3          1.5135   -2.9129   -0.7486 O.2       1 MOL         0.0000
     33 O4         -0.1919    1.5267   -1.9035 O.2       1 MOL         0.0000
     34 O5         -2.9721   -0.1657   -8.8109 O.3       1 MOL         0.0000
     35 O6         -0.9867    1.0489   -9.4365 O.3       1 MOL         0.0000
     36 H1          3.0975   -5.0706    5.3486 H         1 MOL         0.0000
     37 H2          4.6287    1.8032    2.6092 H         1 MOL         0.0000
     38 H3          3.7608   -5.4789    2.9931 H         1 MOL         0.0000
     39 H4          0.8814   -4.0777    5.8589 H         1 MOL         0.0000
     40 H5          2.3227    1.5504    3.4888 H         1 MOL         0.0000
     41 H6          5.1962    0.9440    0.3516 H         1 MOL         0.0000
     42 H7          2.2176   -4.8976    1.1505 H         1 MOL         0.0000
     43 H8         -0.6688   -3.4930    4.0237 H         1 MOL         0.0000
     44 H9          0.5867    0.4425    2.1200 H         1 MOL         0.0000
     45 H10         3.4676   -0.1652   -1.0249 H         1 MOL         0.0000
     46 H11        -1.9821    0.4098   -4.3814 H         1 MOL         0.0000
     47 H12        -3.4925   -0.5008   -6.1308 H         1 MOL         0.0000
     48 H13        -1.8363   -0.5065  -10.5102 H         1 MOL         0.0000
     49 H14        -2.7641    1.0147  -10.5013 H         1 MOL         0.0000
     50 H15         1.0292   -1.0815   -4.8669 H         1 MOL         0.0000
     51 H16         2.3774   -0.6599   -3.7878 H         1 MOL         0.0000
     52 H17         2.1840    0.1846   -5.3391 H         1 MOL         0.0000
     53 H18        -0.1247   -4.4761    0.4975 H         1 MOL         0.0000
     54 H19        -1.3103   -3.8995    1.6695 H         1 MOL         0.0000
     55 H20         1.1627    2.3321   -5.1385 H         1 MOL         0.0000
     56 H21        -0.2350    2.5200   -4.0789 H         1 MOL         0.0000
     57 H22        -0.1335   -0.1867   -0.1694 H         1 MOL         0.0000
     58 H23        -0.6092   -1.7168    1.3390 H         1 MOL         0.0000
     59 H24         1.6389   -1.0530   -2.3109 H         1 MOL         0.0000
@<TRIPOS>BOND
     1    1    3 ar
     2    1    4 ar
     3    2    5 ar
     4    2    6 ar
     5    3    7 ar
     6    4    8 ar
     7    5    9 ar
     8    6   10 ar
     9    7   14 ar
    10    8   14 ar
    11    9   15 ar
    12   10   15 ar
    13   11   12 ar
    14   11   16 ar
    15   12   17 ar
    16   13   16 ar
    17   13   18 ar
    18   13   19 1
    19   14   24 1
    20   15   26 1
    21   16   25 1
    22   17   18 ar
    23   17   34 1
    24   18   35 1
    25   19   30 1
    26   19   31 2
    27   20   26 1
    28   20   27 am
    29   20   32 2
    30   21   28 am
    31   21   29 am
    32   21   33 2
    33   22   34 1
    34   22   35 1
    35   23   29 1
    36   24   27 1
    37   25   29 1
    38   26   28 1
    39    1   36 1
    40    2   37 1
    41    3   38 1
    42    4   39 1
    43    5   40 1
    44    6   41 1
    45    7   42 1
    46    8   43 1
    47    9   44 1
    48   10   45 1
    49   11   46 1
    50   12   47 1
    51   22   48 1
    52   22   49 1
    53   23   50 1
    54   23   51 1
    55   23   52 1
    56   24   53 1
    57   24   54 1
    58   25   55 1
    59   25   56 1
    60   26   57 1
    61   27   58 1
    62   28   59 1
