@<TRIPOS>MOLECULE
AVX38787_1
   73    76     0     0     0
SMALL
NO_CHARGES

@<TRIPOS>ATOM
      1 C1          8.7752   -2.6106   -0.4205 C.ar      1 MOL         0.0000
      2 C2          8.7583   -1.4207    0.3071 C.ar      1 MOL         0.0000
      3 C3          7.8509   -2.8148   -1.4451 C.ar      1 MOL         0.0000
      4 C4          7.8171   -0.4350    0.0102 C.ar      1 MOL         0.0000
      5 C5          8.9130    1.6622   -4.1670 C.ar      1 MOL         0.0000
      6 C6          9.6022    1.9844   -5.3364 C.ar      1 MOL         0.0000
      7 C7          6.9097   -1.8291   -1.7419 C.ar      1 MOL         0.0000
      8 C8          7.7888    3.8018   -4.2324 C.ar      1 MOL         0.0000
      9 C9          6.8927   -0.6392   -1.0143 C.ar      1 MOL         0.0000
     10 C10         8.0118    2.5719   -3.6128 C.ar      1 MOL         0.0000
     11 C11         9.3901    3.2199   -5.9488 C.ar      1 MOL         0.0000
     12 C12         8.4675    4.1190   -5.4093 C.ar      1 MOL         0.0000
     13 C13         5.9556   -2.0686   -2.8163 C.2       1 MOL         0.0000
     14 C14         6.8269    4.7584   -3.6476 C.2       1 MOL         0.0000
     15 C15        12.7785    4.7162  -10.2788 C.2       1 MOL         0.0000
     16 C16         5.3650    0.5633   -8.3396 C.3       1 MOL         0.0000
     17 C17         6.2926    0.8124   -7.1544 C.3       1 MOL         0.0000
     18 C18         4.0910   -0.1592   -7.9127 C.3       1 MOL         0.0000
     19 C19         6.6065   -0.4796   -6.4034 C.3       1 MOL         0.0000
     20 C20         4.4011   -1.4527   -7.1628 C.3       1 MOL         0.0000
     21 C21         8.6602    5.4058   -7.3321 C.3       1 MOL         0.0000
     22 C22         5.3272   -1.2048   -5.9644 C.3       1 MOL         0.0000
     23 C23        10.0867    4.8800   -7.4226 C.3       1 MOL         0.0000
     24 C24         4.9695    1.8278   -3.1635 C.3       1 MOL         0.0000
     25 C25         5.8911    0.4375   -1.3120 C.3       1 MOL         0.0000
     26 C26         7.2971    2.1992   -2.3546 C.3       1 MOL         0.0000
     27 C27        12.0909    4.5851   -8.9147 C.3       1 MOL         0.0000
     28 C28         5.6657   -2.5190   -5.2633 C.3       1 MOL         0.0000
     29 C29        10.6411    5.0227   -8.8324 C.3       1 MOL         0.0000
     30 N1          6.4821   -2.2904   -4.0929 N.am      1 MOL         0.0000
     31 N2          6.2081    1.2081   -2.5682 N.4       1 MOL         0.0000
     32 O1          5.5976    4.6972   -4.0178 O.co2     1 MOL         0.0000
     33 O2         13.9838    4.3486  -10.3389 O.co2     1 MOL         0.0000
     34 O3          4.7342   -2.0508   -2.5883 O.2       1 MOL         0.0000
     35 O4          7.2561    5.6154   -2.7913 O.co2     1 MOL         0.0000
     36 O5         12.0333    5.1729  -11.1931 O.co2     1 MOL         0.0000
     37 O6          8.1909    5.3324   -5.9822 O.3       1 MOL         0.0000
     38 O7         10.1112    3.4868   -7.0826 O.3       1 MOL         0.0000
     39 H1          9.5082   -3.3785   -0.1898 H         1 MOL         0.0000
     40 H2          9.4781   -1.2623    1.1049 H         1 MOL         0.0000
     41 H3          7.8738   -3.7469   -2.0040 H         1 MOL         0.0000
     42 H4          7.8128    0.4887    0.5829 H         1 MOL         0.0000
     43 H5          9.0892    0.7006   -3.6921 H         1 MOL         0.0000
     44 H6         10.3105    1.2745   -5.7548 H         1 MOL         0.0000
     45 H7          5.1069    1.5175   -8.8126 H         1 MOL         0.0000
     46 H8          5.8895   -0.0371   -9.0931 H         1 MOL         0.0000
     47 H9          7.2242    1.2702   -7.5062 H         1 MOL         0.0000
     48 H10         5.8243    1.5286   -6.4680 H         1 MOL         0.0000
     49 H11         3.4945    0.5006   -7.2706 H         1 MOL         0.0000
     50 H12         3.4810   -0.3818   -8.7956 H         1 MOL         0.0000
     51 H13         7.2045   -1.1352   -7.0493 H         1 MOL         0.0000
     52 H14         7.2247   -0.2480   -5.5277 H         1 MOL         0.0000
     53 H15         3.4630   -1.9077   -6.8232 H         1 MOL         0.0000
     54 H16         4.8678   -2.1664   -7.8540 H         1 MOL         0.0000
     55 H17         8.6140    6.4563   -7.6379 H         1 MOL         0.0000
     56 H18         7.9722    4.8356   -7.9696 H         1 MOL         0.0000
     57 H19         4.7998   -0.5776   -5.2374 H         1 MOL         0.0000
     58 H20        10.7419    5.4122   -6.7195 H         1 MOL         0.0000
     59 H21         4.5915    2.5661   -2.4539 H         1 MOL         0.0000
     60 H22         5.2520    2.2988   -4.1070 H         1 MOL         0.0000
     61 H23         4.2417    1.0304   -3.3253 H         1 MOL         0.0000
     62 H24         4.8876    0.0190   -1.4444 H         1 MOL         0.0000
     63 H25         5.8430    1.1688   -0.4980 H         1 MOL         0.0000
     64 H26         7.9811    1.7547   -1.6203 H         1 MOL         0.0000
     65 H27         6.8319    3.0742   -1.8828 H         1 MOL         0.0000
     66 H28        12.6676    5.2101   -8.2213 H         1 MOL         0.0000
     67 H29        12.1919    3.5478   -8.5715 H         1 MOL         0.0000
     68 H30         6.2224   -3.1796   -5.9349 H         1 MOL         0.0000
     69 H31         4.7552   -3.0318   -4.9396 H         1 MOL         0.0000
     70 H32        10.0061    4.4518   -9.5076 H         1 MOL         0.0000
     71 H33        10.5579    6.0745   -9.1047 H         1 MOL         0.0000
     72 H34         7.4853   -2.2314   -4.2343 H         1 MOL         0.0000
     73 H35         6.5443    0.5157   -3.2574 H         1 MOL         0.0000
@<TRIPOS>BOND
     1    1    2 ar
     2    1    3 ar
     3    2    4 ar
     4    3    7 ar
     5    4    9 ar
     6    5    6 ar
     7    5   10 ar
     8    6   11 ar
     9    7    9 ar
    10    7   13 1
    11    8   10 ar
    12    8   12 ar
    13    8   14 1
    14    9   25 1
    15   10   26 1
    16   11   12 ar
    17   11   38 1
    18   12   37 1
    19   13   30 am
    20   13   34 2
    21   14   32 1
    22   14   35 2
    23   15   27 1
    24   15   33 1
    25   15   36 2
    26   16   17 1
    27   16   18 1
    28   17   19 1
    29   18   20 1
    30   19   22 1
    31   20   22 1
    32   21   23 1
    33   21   37 1
    34   22   28 1
    35   23   29 1
    36   23   38 1
    37   24   31 1
    38   25   31 1
    39   26   31 1
    40   27   29 1
    41   28   30 1
    42    1   39 1
    43    2   40 1
    44    3   41 1
    45    4   42 1
    46    5   43 1
    47    6   44 1
    48   16   45 1
    49   16   46 1
    50   17   47 1
    51   17   48 1
    52   18   49 1
    53   18   50 1
    54   19   51 1
    55   19   52 1
    56   20   53 1
    57   20   54 1
    58   21   55 1
    59   21   56 1
    60   22   57 1
    61   23   58 1
    62   24   59 1
    63   24   60 1
    64   24   61 1
    65   25   62 1
    66   25   63 1
    67   26   64 1
    68   26   65 1
    69   27   66 1
    70   27   67 1
    71   28   68 1
    72   28   69 1
    73   29   70 1
    74   29   71 1
    75   30   72 1
    76   31   73 1
