AVX38782_2
  -OEChem-04011315003D

 71 74  0     1  0  0  0  0  0999 V2000
   -5.5248   -1.4756    1.1849 C   0  0  0  0  0  0  0  0  0  0  0  0
   -4.6933   -1.3749    0.0696 C   0  0  0  0  0  0  0  0  0  0  0  0
   -5.6059   -2.6776    1.8881 C   0  0  0  0  0  0  0  0  0  0  0  0
   -3.9430   -2.4761   -0.3427 C   0  0  0  0  0  0  0  0  0  0  0  0
   -2.5364   -8.3452   -0.2752 C   0  0  0  0  0  0  0  0  0  0  0  0
   -3.1461   -9.5572    0.0493 C   0  0  0  0  0  0  0  0  0  0  0  0
   -4.8556   -3.7788    1.4759 C   0  0  0  0  0  0  0  0  0  0  0  0
   -1.8596   -8.0612    2.0286 C   0  0  0  0  0  0  0  0  0  0  0  0
   -4.0241   -3.6781    0.3605 C   0  0  0  0  0  0  0  0  0  0  0  0
   -1.8895   -7.6009    0.7120 C   0  0  0  0  0  0  0  0  0  0  0  0
   -3.1044  -10.0249    1.3631 C   0  0  0  0  0  0  0  0  0  0  0  0
   -2.4804   -9.2669    2.3563 C   0  0  0  0  0  0  0  0  0  0  0  0
    0.7944   -3.3768   -0.6046 C   0  0  0  0  0  0  0  0  0  0  0  0
   -0.5239   -3.4737   -0.4002 C   0  0  0  0  0  0  0  0  0  0  0  0
   -4.9597   -5.0220    2.2278 C   0  0  0  0  0  0  0  0  0  0  0  0
   -1.1817   -7.2658    3.0725 C   0  0  0  0  0  0  0  0  0  0  0  0
   -2.9032  -14.6750    1.7936 C   0  0  0  0  0  0  0  0  0  0  0  0
   -8.2467   -9.6402    1.2191 C   0  0  0  0  0  0  0  0  0  0  0  0
   -8.2094   -8.0978    1.2075 C   0  0  0  0  0  0  0  0  0  0  0  0
   -7.0092   -9.5869    2.1393 C   0  0  0  0  0  0  0  0  0  0  0  0
   -3.3738  -10.6983    3.9517 C   0  0  0  0  0  0  0  0  0  0  0  0
   -6.7021   -8.2083    1.5180 C   0  0  0  0  0  0  0  0  0  0  0  0
   -3.3017  -11.7776    2.8796 C   0  0  1  0  0  0  0  0  0  0  0  0
   -3.2066   -4.8468   -0.1053 C   0  0  0  0  0  0  0  0  0  0  0  0
   -1.2398   -6.3108    0.3292 C   0  0  0  0  0  0  0  0  0  0  0  0
   -1.1378   -3.8883    0.8963 C   0  0  0  0  0  0  0  0  0  0  0  0
   -4.2355  -13.9783    2.0944 C   0  0  0  0  0  0  0  0  0  0  0  0
   -6.1870   -7.1913    2.4787 C   0  0  0  0  0  0  0  0  0  0  0  0
   -4.2319  -12.9388    3.1988 C   0  0  0  0  0  0  0  0  0  0  0  0
   -5.9446   -5.9277    1.8204 N   0  0  0  0  0  0  0  0  0  0  0  0
   -2.0067   -5.1134    0.7673 N   0  3  1  0  0  0  0  0  0  0  0  0
    0.0661   -7.4797    3.2946 O   0  5  0  0  0  0  0  0  0  0  0  0
   -2.7228  -15.0544    0.6041 O   0  5  0  0  0  0  0  0  0  0  0  0
   -4.2107   -5.2362    3.1959 O   0  0  0  0  0  0  0  0  0  0  0  0
   -1.8656   -6.3904    3.7190 O   0  0  0  0  0  0  0  0  0  0  0  0
   -2.1323  -14.7722    2.7916 O   0  0  0  0  0  0  0  0  0  0  0  0
   -2.4342   -9.6563    3.6689 O   0  0  0  0  0  0  0  0  0  0  0  0
   -3.7024  -11.2314    1.6157 O   0  0  0  0  0  0  0  0  0  0  0  0
   -6.1092   -0.6182    1.5065 H   0  0  0  0  0  0  0  0  0  0  0  0
   -4.6307   -0.4388   -0.4777 H   0  0  0  0  0  0  0  0  0  0  0  0
   -6.2584   -2.7436    2.7550 H   0  0  0  0  0  0  0  0  0  0  0  0
   -3.2979   -2.3869   -1.2128 H   0  0  0  0  0  0  0  0  0  0  0  0
   -2.5671   -7.9911   -1.3024 H   0  0  0  0  0  0  0  0  0  0  0  0
   -3.6389  -10.1353   -0.7276 H   0  0  0  0  0  0  0  0  0  0  0  0
    1.1795   -3.0653   -1.5694 H   0  0  0  0  0  0  0  0  0  0  0  0
    1.5083   -3.6033    0.1795 H   0  0  0  0  0  0  0  0  0  0  0  0
   -1.1969   -3.2301   -1.2182 H   0  0  0  0  0  0  0  0  0  0  0  0
   -9.1392  -10.0621    1.6954 H   0  0  0  0  0  0  0  0  0  0  0  0
   -8.0980  -10.1259    0.2514 H   0  0  0  0  0  0  0  0  0  0  0  0
   -8.4264   -7.6603    0.2255 H   0  0  0  0  0  0  0  0  0  0  0  0
   -8.8299   -7.6023    1.9589 H   0  0  0  0  0  0  0  0  0  0  0  0
   -7.2147   -9.6060    3.2128 H   0  0  0  0  0  0  0  0  0  0  0  0
   -6.2575  -10.3511    1.9094 H   0  0  0  0  0  0  0  0  0  0  0  0
   -4.3749  -10.2533    4.0177 H   0  0  0  0  0  0  0  0  0  0  0  0
   -3.1197  -11.1106    4.9339 H   0  0  0  0  0  0  0  0  0  0  0  0
   -6.0666   -8.2541    0.6269 H   0  0  0  0  0  0  0  0  0  0  0  0
   -2.2747  -12.1538    2.7766 H   0  0  0  0  0  0  0  0  0  0  0  0
   -3.8004   -5.7672   -0.1134 H   0  0  0  0  0  0  0  0  0  0  0  0
   -2.8278   -4.6851   -1.1202 H   0  0  0  0  0  0  0  0  0  0  0  0
   -0.2398   -6.2175    0.7716 H   0  0  0  0  0  0  0  0  0  0  0  0
   -1.1269   -6.2255   -0.7592 H   0  0  0  0  0  0  0  0  0  0  0  0
   -1.7829   -3.0922    1.2802 H   0  0  0  0  0  0  0  0  0  0  0  0
   -0.3866   -4.1253    1.6564 H   0  0  0  0  0  0  0  0  0  0  0  0
   -4.9355  -14.7717    2.3854 H   0  0  0  0  0  0  0  0  0  0  0  0
   -4.6171  -13.5389    1.1642 H   0  0  0  0  0  0  0  0  0  0  0  0
   -5.2428   -7.5243    2.9200 H   0  0  0  0  0  0  0  0  0  0  0  0
   -6.9088   -7.0156    3.2818 H   0  0  0  0  0  0  0  0  0  0  0  0
   -3.9309  -13.3639    4.1548 H   0  0  0  0  0  0  0  0  0  0  0  0
   -5.2329  -12.5247    3.3178 H   0  0  0  0  0  0  0  0  0  0  0  0
   -6.5706   -5.6744    1.0629 H   0  0  0  0  0  0  0  0  0  0  0  0
   -2.3747   -5.3072    1.7131 H   0  0  0  0  0  0  0  0  0  0  0  0
  1  2  1  0  0  0  0
  1  3  2  0  0  0  0
  2  4  2  0  0  0  0
  3  7  1  0  0  0  0
  4  9  1  0  0  0  0
  5  6  2  0  0  0  0
  5 10  1  0  0  0  0
  6 11  1  0  0  0  0
  7  9  2  0  0  0  0
  7 15  1  0  0  0  0
  8 10  2  0  0  0  0
  8 12  1  0  0  0  0
  8 16  1  0  0  0  0
  9 24  1  0  0  0  0
 10 25  1  0  0  0  0
 11 12  2  0  0  0  0
 11 38  1  0  0  0  0
 12 37  1  0  0  0  0
 13 14  2  0  0  0  0
 14 26  1  0  0  0  0
 15 30  1  0  0  0  0
 15 34  2  0  0  0  0
 16 32  1  0  0  0  0
 16 35  2  0  0  0  0
 17 27  1  0  0  0  0
 17 33  1  0  0  0  0
 17 36  2  0  0  0  0
 18 19  1  0  0  0  0
 18 20  1  0  0  0  0
 19 22  1  0  0  0  0
 20 22  1  0  0  0  0
 21 23  1  0  0  0  0
 21 37  1  0  0  0  0
 22 28  1  0  0  0  0
 23 29  1  0  0  0  0
 23 38  1  0  0  0  0
 24 31  1  0  0  0  0
 25 31  1  0  0  0  0
 26 31  1  0  0  0  0
 27 29  1  0  0  0  0
 28 30  1  0  0  0  0
  1 39  1  0  0  0  0
  2 40  1  0  0  0  0
  3 41  1  0  0  0  0
  4 42  1  0  0  0  0
  5 43  1  0  0  0  0
  6 44  1  0  0  0  0
 13 45  1  0  0  0  0
 13 46  1  0  0  0  0
 14 47  1  0  0  0  0
 18 48  1  0  0  0  0
 18 49  1  0  0  0  0
 19 50  1  0  0  0  0
 19 51  1  0  0  0  0
 20 52  1  0  0  0  0
 20 53  1  0  0  0  0
 21 54  1  0  0  0  0
 21 55  1  0  0  0  0
 22 56  1  0  0  0  0
 23 57  1  0  0  0  0
 24 58  1  0  0  0  0
 24 59  1  0  0  0  0
 25 60  1  0  0  0  0
 25 61  1  0  0  0  0
 26 62  1  0  0  0  0
 26 63  1  0  0  0  0
 27 64  1  0  0  0  0
 27 65  1  0  0  0  0
 28 66  1  0  0  0  0
 28 67  1  0  0  0  0
 29 68  1  0  0  0  0
 29 69  1  0  0  0  0
 30 70  1  0  0  0  0
 31 71  1  0  0  0  0
M  CHG  3  31   1  32  -1  33  -1
M  END
$$$$
