@<TRIPOS>MOLECULE
AVX38748_2
   67    70     0     0     0
SMALL
NO_CHARGES

@<TRIPOS>ATOM
      1 C1         -2.0130    1.1304   -1.6264 C.ar      1 MOL         0.0000
      2 C2         -1.6942    2.0339   -0.6017 C.ar      1 MOL         0.0000
      3 C3         -1.3986   -0.1214   -1.6859 C.ar      1 MOL         0.0000
      4 C4         -0.7561    1.6986    0.3777 C.ar      1 MOL         0.0000
      5 C5          2.4990   -0.4695    3.7996 C.ar      1 MOL         0.0000
      6 C6          3.3998   -1.1088    4.6517 C.ar      1 MOL         0.0000
      7 C7          4.3020    0.0550    2.2765 C.ar      1 MOL         0.0000
      8 C8         -0.4605   -0.4407   -0.7175 C.ar      1 MOL         0.0000
      9 C9         -0.1380    0.4594    0.3068 C.ar      1 MOL         0.0000
     10 C10         2.9503    0.1164    2.6165 C.ar      1 MOL         0.0000
     11 C11         4.7538   -1.1584    4.3191 C.ar      1 MOL         0.0000
     12 C12         5.2011   -0.5962    3.1214 C.ar      1 MOL         0.0000
     13 C13         4.7744    0.6684    1.0183 C.2       1 MOL         0.0000
     14 C14         2.9481   -3.2379    0.7418 C.2       1 MOL         0.0000
     15 C15         8.4275   -3.1370    8.1996 C.2       1 MOL         0.0000
     16 C16         0.2911   -1.7253   -0.5655 C.3       1 MOL         0.0000
     17 C17         7.2617   -1.6093    3.4640 C.3       1 MOL         0.0000
     18 C18         0.8646   -0.1477    1.2506 C.3       1 MOL         0.0000
     19 C19         1.4297   -1.2961    0.3775 C.3       1 MOL         0.0000
     20 C20         6.9701   -1.4744    4.9527 C.3       1 MOL         0.0000
     21 C21         1.9534    0.8064    1.7243 C.3       1 MOL         0.0000
     22 C22         3.2728   -4.2943    1.7855 C.3       1 MOL         0.0000
     23 C23         7.6007   -2.2495    7.2618 C.3       1 MOL         0.0000
     24 C24         7.8173   -2.4366    5.7724 C.3       1 MOL         0.0000
     25 C25         4.7330   -4.7442    1.7729 C.3       1 MOL         0.0000
     26 C26         5.0425   -5.7526    2.8833 C.3       1 MOL         0.0000
     27 C27         6.4957   -6.2007    2.8214 C.3       1 MOL         0.0000
     28 N1          1.9216   -2.3975    1.1602 N.am      1 MOL         0.0000
     29 N2          6.7628   -7.1386    3.9383 N.4       1 MOL         0.0000
     30 O1          4.7905   -0.0501   -0.0472 O.co2     1 MOL         0.0000
     31 O2          8.2402   -2.9760    9.4367 O.co2     1 MOL         0.0000
     32 O3          5.1516    1.8969    1.0376 O.co2     1 MOL         0.0000
     33 O4          3.5459   -3.1416   -0.3265 O.2       1 MOL         0.0000
     34 O5          9.1987   -3.9435    7.6040 O.co2     1 MOL         0.0000
     35 O6          6.5112   -0.6416    2.7235 O.3       1 MOL         0.0000
     36 O7          5.5921   -1.7817    5.2054 O.3       1 MOL         0.0000
     37 H1         -2.7498    1.4064   -2.3760 H         1 MOL         0.0000
     38 H2         -2.1879    3.0013   -0.5663 H         1 MOL         0.0000
     39 H3         -1.6542   -0.8234   -2.4723 H         1 MOL         0.0000
     40 H4         -0.5282    2.3982    1.1746 H         1 MOL         0.0000
     41 H5          1.4469   -0.4289    4.0694 H         1 MOL         0.0000
     42 H6          3.0412   -1.5525    5.5765 H         1 MOL         0.0000
     43 H7         -0.3540   -2.4884   -0.1161 H         1 MOL         0.0000
     44 H8          0.6841   -2.0923   -1.5187 H         1 MOL         0.0000
     45 H9          8.3221   -1.4280    3.2586 H         1 MOL         0.0000
     46 H10         7.0081   -2.6080    3.0857 H         1 MOL         0.0000
     47 H11         0.3271   -0.5529    2.1183 H         1 MOL         0.0000
     48 H12         2.2751   -0.9348   -0.2249 H         1 MOL         0.0000
     49 H13         7.1563   -0.4467    5.2933 H         1 MOL         0.0000
     50 H14         1.4981    1.6483    2.2583 H         1 MOL         0.0000
     51 H15         2.4673    1.2377    0.8577 H         1 MOL         0.0000
     52 H16         2.6092   -5.1562    1.6484 H         1 MOL         0.0000
     53 H17         3.0459   -3.8555    2.7650 H         1 MOL         0.0000
     54 H18         7.8659   -1.2140    7.5096 H         1 MOL         0.0000
     55 H19         6.5389   -2.3765    7.5075 H         1 MOL         0.0000
     56 H20         7.5855   -3.4512    5.4531 H         1 MOL         0.0000
     57 H21         8.8594   -2.2379    5.5239 H         1 MOL         0.0000
     58 H22         4.9910   -5.1728    0.7970 H         1 MOL         0.0000
     59 H23         5.3688   -3.8608    1.9108 H         1 MOL         0.0000
     60 H24         4.8370   -5.2960    3.8596 H         1 MOL         0.0000
     61 H25         4.3846   -6.6251    2.7946 H         1 MOL         0.0000
     62 H26         7.1888   -5.3624    2.9384 H         1 MOL         0.0000
     63 H27         6.7197   -6.7380    1.8952 H         1 MOL         0.0000
     64 H28         1.4826   -2.5734    2.0627 H         1 MOL         0.0000
     65 H29         7.7275   -7.0448    4.2745 H         1 MOL         0.0000
     66 H30         6.6253   -8.1112    3.6418 H         1 MOL         0.0000
     67 H31         6.1342   -6.9578    4.7287 H         1 MOL         0.0000
@<TRIPOS>BOND
     1    1    2 ar
     2    1    3 ar
     3    2    4 ar
     4    3    8 ar
     5    4    9 ar
     6    5    6 ar
     7    5   10 ar
     8    6   11 ar
     9    7   10 ar
    10    7   12 ar
    11    7   13 1
    12    8    9 ar
    13    8   16 1
    14    9   18 1
    15   10   21 1
    16   11   12 ar
    17   11   36 1
    18   12   35 1
    19   13   30 1
    20   13   32 2
    21   14   22 1
    22   14   28 am
    23   14   33 2
    24   15   23 1
    25   15   31 1
    26   15   34 2
    27   16   19 1
    28   17   20 1
    29   17   35 1
    30   18   19 1
    31   18   21 1
    32   19   28 1
    33   20   24 1
    34   20   36 1
    35   22   25 1
    36   23   24 1
    37   25   26 1
    38   26   27 1
    39   27   29 1
    40    1   37 1
    41    2   38 1
    42    3   39 1
    43    4   40 1
    44    5   41 1
    45    6   42 1
    46   16   43 1
    47   16   44 1
    48   17   45 1
    49   17   46 1
    50   18   47 1
    51   19   48 1
    52   20   49 1
    53   21   50 1
    54   21   51 1
    55   22   52 1
    56   22   53 1
    57   23   54 1
    58   23   55 1
    59   24   56 1
    60   24   57 1
    61   25   58 1
    62   25   59 1
    63   26   60 1
    64   26   61 1
    65   27   62 1
    66   27   63 1
    67   28   64 1
    68   29   65 1
    69   29   66 1
    70   29   67 1
