AVX38749_5
  -OEChem-04011314583D

 64 67  0     1  0  0  0  0  0999 V2000
    1.8121    1.8090   -1.1916 C   0  0  0  0  0  0  0  0  0  0  0  0
    1.2445    1.0062   -2.1923 C   0  0  0  0  0  0  0  0  0  0  0  0
    1.4139    1.6723    0.1391 C   0  0  0  0  0  0  0  0  0  0  0  0
    0.2716    0.0548   -1.8762 C   0  0  0  0  0  0  0  0  0  0  0  0
   -3.5150   -2.9216    0.0712 C   0  0  0  0  0  0  0  0  0  0  0  0
   -4.4917   -3.7126    0.6766 C   0  0  0  0  0  0  0  0  0  0  0  0
   -1.7992   -4.4446    0.8346 C   0  0  0  0  0  0  0  0  0  0  0  0
    0.4574    0.7177    0.4451 C   0  0  0  0  0  0  0  0  0  0  0  0
   -0.1106   -0.0875   -0.5510 C   0  0  0  0  0  0  0  0  0  0  0  0
   -2.1712   -3.2900    0.1456 C   0  0  0  0  0  0  0  0  0  0  0  0
   -4.1216   -4.8749    1.3537 C   0  0  0  0  0  0  0  0  0  0  0  0
   -2.7742   -5.2291    1.4513 C   0  0  0  0  0  0  0  0  0  0  0  0
   -0.3746   -4.8262    0.9188 C   0  0  0  0  0  0  0  0  0  0  0  0
   -1.7644   -1.7987    3.6520 C   0  0  0  0  0  0  0  0  0  0  0  0
   -7.2271   -8.3611    1.1266 C   0  0  0  0  0  0  0  0  0  0  0  0
   -0.1388    0.4223    1.7852 C   0  0  0  0  0  0  0  0  0  0  0  0
   -3.3586   -6.8638    2.9935 C   0  0  0  0  0  0  0  0  0  0  0  0
   -1.1518   -1.0021    0.0354 C   0  0  2  0  0  0  0  0  0  0  0  0
   -0.7658   -0.9617    1.5347 C   0  0  2  0  0  0  0  0  0  0  0  0
   -4.6898   -6.9415    2.2578 C   0  0  1  0  0  0  0  0  0  0  0  0
   -1.1435   -2.4184   -0.5254 C   0  0  0  0  0  0  0  0  0  0  0  0
   -3.1095   -1.9457    4.3413 C   0  0  0  0  0  0  0  0  0  0  0  0
   -7.1185   -7.5742    2.4380 C   0  0  0  0  0  0  0  0  0  0  0  0
   -5.7674   -7.5727    3.1272 C   0  0  0  0  0  0  0  0  0  0  0  0
   -2.9917   -2.5878    5.7214 C   0  0  0  0  0  0  0  0  0  0  0  0
   -4.3598   -2.7563    6.3645 C   0  0  0  0  0  0  0  0  0  0  0  0
   -1.8889   -1.2126    2.3971 N   0  0  0  0  0  0  0  0  0  0  0  0
   -4.1922   -3.3396    7.7173 N   0  3  0  0  0  0  0  0  0  0  0  0
    0.1132   -5.5858    0.0039 O   0  5  0  0  0  0  0  0  0  0  0  0
   -8.0603   -7.9335    0.2813 O   0  5  0  0  0  0  0  0  0  0  0  0
    0.3226   -4.3842    1.9040 O   0  0  0  0  0  0  0  0  0  0  0  0
   -0.7058   -2.1615    4.1576 O   0  0  0  0  0  0  0  0  0  0  0  0
   -6.4438   -9.3512    1.0499 O   0  0  0  0  0  0  0  0  0  0  0  0
   -2.3453   -6.3396    2.1293 O   0  0  0  0  0  0  0  0  0  0  0  0
   -5.1274   -5.6211    1.9092 O   0  0  0  0  0  0  0  0  0  0  0  0
    2.5634    2.5477   -1.4572 H   0  0  0  0  0  0  0  0  0  0  0  0
    1.5604    1.1315   -3.2244 H   0  0  0  0  0  0  0  0  0  0  0  0
    1.8458    2.3010    0.9103 H   0  0  0  0  0  0  0  0  0  0  0  0
   -0.1719   -0.5499   -2.6597 H   0  0  0  0  0  0  0  0  0  0  0  0
   -3.8120   -2.0215   -0.4606 H   0  0  0  0  0  0  0  0  0  0  0  0
   -5.5367   -3.4238    0.6051 H   0  0  0  0  0  0  0  0  0  0  0  0
    0.6167    0.3767    2.5755 H   0  0  0  0  0  0  0  0  0  0  0  0
   -0.8902    1.1782    2.0386 H   0  0  0  0  0  0  0  0  0  0  0  0
   -3.4195   -6.2243    3.8834 H   0  0  0  0  0  0  0  0  0  0  0  0
   -3.0337   -7.8599    3.3124 H   0  0  0  0  0  0  0  0  0  0  0  0
   -2.1407   -0.5507   -0.1204 H   0  0  0  0  0  0  0  0  0  0  0  0
   -0.0191   -1.7378    1.7550 H   0  0  0  0  0  0  0  0  0  0  0  0
   -4.5869   -7.5210    1.3302 H   0  0  0  0  0  0  0  0  0  0  0  0
   -0.1470   -2.8572   -0.4016 H   0  0  0  0  0  0  0  0  0  0  0  0
   -1.3308   -2.3878   -1.6049 H   0  0  0  0  0  0  0  0  0  0  0  0
   -3.7581   -2.5544    3.6999 H   0  0  0  0  0  0  0  0  0  0  0  0
   -3.5600   -0.9497    4.4290 H   0  0  0  0  0  0  0  0  0  0  0  0
   -7.8433   -8.0272    3.1262 H   0  0  0  0  0  0  0  0  0  0  0  0
   -7.4498   -6.5443    2.2552 H   0  0  0  0  0  0  0  0  0  0  0  0
   -5.4461   -8.5787    3.3917 H   0  0  0  0  0  0  0  0  0  0  0  0
   -5.8229   -6.9877    4.0449 H   0  0  0  0  0  0  0  0  0  0  0  0
   -2.3510   -1.9691    6.3628 H   0  0  0  0  0  0  0  0  0  0  0  0
   -2.4971   -3.5636    5.6331 H   0  0  0  0  0  0  0  0  0  0  0  0
   -4.8728   -1.7987    6.4932 H   0  0  0  0  0  0  0  0  0  0  0  0
   -4.9970   -3.4428    5.7996 H   0  0  0  0  0  0  0  0  0  0  0  0
   -2.8193   -0.9807    2.0533 H   0  0  0  0  0  0  0  0  0  0  0  0
   -4.0837   -2.6040    8.4241 H   0  0  0  0  0  0  0  0  0  0  0  0
   -3.3617   -3.9407    7.7577 H   0  0  0  0  0  0  0  0  0  0  0  0
   -5.0061   -3.9081    7.9760 H   0  0  0  0  0  0  0  0  0  0  0  0
  1  2  1  0  0  0  0
  1  3  2  0  0  0  0
  2  4  2  0  0  0  0
  3  8  1  0  0  0  0
  4  9  1  0  0  0  0
  5  6  2  0  0  0  0
  5 10  1  0  0  0  0
  6 11  1  0  0  0  0
  7 10  2  0  0  0  0
  7 12  1  0  0  0  0
  7 13  1  0  0  0  0
  8  9  2  0  0  0  0
  8 16  1  0  0  0  0
  9 18  1  0  0  0  0
 10 21  1  0  0  0  0
 11 12  2  0  0  0  0
 11 35  1  0  0  0  0
 12 34  1  0  0  0  0
 13 29  1  0  0  0  0
 13 31  2  0  0  0  0
 14 22  1  0  0  0  0
 14 27  1  0  0  0  0
 14 32  2  0  0  0  0
 15 23  1  0  0  0  0
 15 30  1  0  0  0  0
 15 33  2  0  0  0  0
 16 19  1  0  0  0  0
 17 20  1  0  0  0  0
 17 34  1  0  0  0  0
 18 19  1  0  0  0  0
 18 21  1  0  0  0  0
 19 27  1  0  0  0  0
 20 24  1  0  0  0  0
 20 35  1  0  0  0  0
 22 25  1  0  0  0  0
 23 24  1  0  0  0  0
 25 26  1  0  0  0  0
 26 28  1  0  0  0  0
  1 36  1  0  0  0  0
  2 37  1  0  0  0  0
  3 38  1  0  0  0  0
  4 39  1  0  0  0  0
  5 40  1  0  0  0  0
  6 41  1  0  0  0  0
 16 42  1  0  0  0  0
 16 43  1  0  0  0  0
 17 44  1  0  0  0  0
 17 45  1  0  0  0  0
 18 46  1  0  0  0  0
 19 47  1  0  0  0  0
 20 48  1  0  0  0  0
 21 49  1  0  0  0  0
 21 50  1  0  0  0  0
 22 51  1  0  0  0  0
 22 52  1  0  0  0  0
 23 53  1  0  0  0  0
 23 54  1  0  0  0  0
 24 55  1  0  0  0  0
 24 56  1  0  0  0  0
 25 57  1  0  0  0  0
 25 58  1  0  0  0  0
 26 59  1  0  0  0  0
 26 60  1  0  0  0  0
 27 61  1  0  0  0  0
 28 62  1  0  0  0  0
 28 63  1  0  0  0  0
 28 64  1  0  0  0  0
M  CHG  3  28   1  29  -1  30  -1
M  END
$$$$
