@<TRIPOS>MOLECULE
AVX38779_2
   70    72     0     0     0
SMALL
NO_CHARGES

@<TRIPOS>ATOM
      1 C1          1.4977   -3.0987    6.2238 C.ar      1 MOL         0.0000
      2 C2          2.3258   -3.8894    5.4272 C.ar      1 MOL         0.0000
      3 C3          1.3441   -1.7419    5.9388 C.ar      1 MOL         0.0000
      4 C4          3.0005   -3.3233    4.3456 C.ar      1 MOL         0.0000
      5 C5          0.9561   -3.8019    0.5730 C.ar      1 MOL         0.0000
      6 C6          0.3626   -4.7277   -0.2853 C.ar      1 MOL         0.0000
      7 C7          2.0188   -1.1758    4.8571 C.ar      1 MOL         0.0000
      8 C8          0.9739   -2.1591   -1.2009 C.ar      1 MOL         0.0000
      9 C9          2.8470   -1.9665    4.0605 C.ar      1 MOL         0.0000
     10 C10         1.2664   -2.5212    0.1142 C.ar      1 MOL         0.0000
     11 C11         0.0825   -4.3706   -1.6046 C.ar      1 MOL         0.0000
     12 C12         0.3678   -3.0800   -2.0558 C.ar      1 MOL         0.0000
     13 C13         6.7308   -2.3937    1.0458 C.2       1 MOL         0.0000
     14 C14         5.4765   -2.8079    0.8355 C.2       1 MOL         0.0000
     15 C15         1.8412    0.2436    4.5822 C.2       1 MOL         0.0000
     16 C16         1.2955   -0.7992   -1.6801 C.2       1 MOL         0.0000
     17 C17        -1.6544   -8.4340   -5.2022 C.2       1 MOL         0.0000
     18 C18        -0.8279   -3.5378   -3.9925 C.3       1 MOL         0.0000
     19 C19        -0.4023   -4.9867   -3.7952 C.3       1 MOL         0.0000
     20 C20        -0.7841    1.3678    1.7499 C.3       1 MOL         0.0000
     21 C21        -0.0579    2.8211    5.2813 C.3       1 MOL         0.0000
     22 C22         3.5849   -1.3837    2.8914 C.3       1 MOL         0.0000
     23 C23         1.9102   -1.5568    1.0567 C.3       1 MOL         0.0000
     24 C24         4.3294   -1.8898    0.5695 C.3       1 MOL         0.0000
     25 C25        -0.8428   -7.3777   -4.4431 C.3       1 MOL         0.0000
     26 C26        -1.3099   -5.9395   -4.5594 C.3       1 MOL         0.0000
     27 C27        -1.0023    2.1274    3.0522 C.3       1 MOL         0.0000
     28 C28         0.2064    2.0480    3.9935 C.3       1 MOL         0.0000
     29 N1          0.5401    0.6774    4.3077 N.am      1 MOL         0.0000
     30 N2          3.2198   -2.0313    1.5800 N.4       1 MOL         0.0000
     31 O1          0.4082    0.1222   -1.5546 O.co2     1 MOL         0.0000
     32 O2         -1.2600   -9.6278   -5.0988 O.co2     1 MOL         0.0000
     33 O3          2.8190    1.0104    4.5770 O.2       1 MOL         0.0000
     34 O4          2.4500   -0.5896   -2.2045 O.co2     1 MOL         0.0000
     35 O5         -2.6439   -7.9689   -5.8382 O.co2     1 MOL         0.0000
     36 O6          0.0862   -2.6592   -3.3288 O.3       1 MOL         0.0000
     37 O7         -0.4814   -5.3292   -2.4047 O.3       1 MOL         0.0000
     38 H1          0.9719   -3.5391    7.0662 H         1 MOL         0.0000
     39 H2          2.4452   -4.9458    5.6499 H         1 MOL         0.0000
     40 H3          0.6968   -1.1362    6.5678 H         1 MOL         0.0000
     41 H4          3.6429   -3.9484    3.7310 H         1 MOL         0.0000
     42 H5          1.1776   -4.0901    1.5973 H         1 MOL         0.0000
     43 H6          0.1346   -5.7264    0.0772 H         1 MOL         0.0000
     44 H7          7.5230   -3.1113    1.2295 H         1 MOL         0.0000
     45 H8          6.9894   -1.3407    1.0379 H         1 MOL         0.0000
     46 H9          5.2715   -3.8752    0.8487 H         1 MOL         0.0000
     47 H10        -0.8228   -3.2734   -5.0552 H         1 MOL         0.0000
     48 H11        -1.8357   -3.3499   -3.6003 H         1 MOL         0.0000
     49 H12         0.6361   -5.1343   -4.1222 H         1 MOL         0.0000
     50 H13        -0.5739    0.3098    1.9341 H         1 MOL         0.0000
     51 H14        -1.6810    1.4271    1.1251 H         1 MOL         0.0000
     52 H15         0.0512    1.7924    1.1839 H         1 MOL         0.0000
     53 H16        -0.9311    2.4211    5.8068 H         1 MOL         0.0000
     54 H17         0.8023    2.7713    5.9584 H         1 MOL         0.0000
     55 H18        -0.2472    3.8788    5.0676 H         1 MOL         0.0000
     56 H19         3.3742   -0.3142    2.7835 H         1 MOL         0.0000
     57 H20         4.6677   -1.5002    3.0091 H         1 MOL         0.0000
     58 H21         2.1012   -0.5898    0.5741 H         1 MOL         0.0000
     59 H22         1.2765   -1.3676    1.9326 H         1 MOL         0.0000
     60 H23         3.8871   -2.1113   -0.4067 H         1 MOL         0.0000
     61 H24         4.6258   -0.8362    0.5869 H         1 MOL         0.0000
     62 H25         0.1771   -7.4304   -4.8445 H         1 MOL         0.0000
     63 H26        -0.7878   -7.6722   -3.3875 H         1 MOL         0.0000
     64 H27        -2.3259   -5.8118   -4.1900 H         1 MOL         0.0000
     65 H28        -1.2927   -5.6300   -5.6041 H         1 MOL         0.0000
     66 H29        -1.2079    3.1768    2.8087 H         1 MOL         0.0000
     67 H30        -1.8967    1.7311    3.5488 H         1 MOL         0.0000
     68 H31         1.0852    2.4772    3.4984 H         1 MOL         0.0000
     69 H32        -0.2118   -0.0026    4.2632 H         1 MOL         0.0000
     70 H33         3.1315   -3.0426    1.7721 H         1 MOL         0.0000
@<TRIPOS>BOND
     1    1    2 ar
     2    1    3 ar
     3    2    4 ar
     4    3    7 ar
     5    4    9 ar
     6    5    6 ar
     7    5   10 ar
     8    6   11 ar
     9    7    9 ar
    10    7   15 1
    11    8   10 ar
    12    8   12 ar
    13    8   16 1
    14    9   22 1
    15   10   23 1
    16   11   12 ar
    17   11   37 1
    18   12   36 1
    19   13   14 2
    20   14   24 1
    21   15   29 am
    22   15   33 2
    23   16   31 1
    24   16   34 2
    25   17   25 1
    26   17   32 1
    27   17   35 2
    28   18   19 1
    29   18   36 1
    30   19   26 1
    31   19   37 1
    32   20   27 1
    33   21   28 1
    34   22   30 1
    35   23   30 1
    36   24   30 1
    37   25   26 1
    38   27   28 1
    39   28   29 1
    40    1   38 1
    41    2   39 1
    42    3   40 1
    43    4   41 1
    44    5   42 1
    45    6   43 1
    46   13   44 1
    47   13   45 1
    48   14   46 1
    49   18   47 1
    50   18   48 1
    51   19   49 1
    52   20   50 1
    53   20   51 1
    54   20   52 1
    55   21   53 1
    56   21   54 1
    57   21   55 1
    58   22   56 1
    59   22   57 1
    60   23   58 1
    61   23   59 1
    62   24   60 1
    63   24   61 1
    64   25   62 1
    65   25   63 1
    66   26   64 1
    67   26   65 1
    68   27   66 1
    69   27   67 1
    70   28   68 1
    71   29   69 1
    72   30   70 1
