AVX38742_5
  -OEChem-04011314573D

 47 50  0     1  0  0  0  0  0999 V2000
   -4.4937    1.0896   -4.5208 C   0  0  0  0  0  0  0  0  0  0  0  0
   -5.7543    0.9134   -3.9292 C   0  0  0  0  0  0  0  0  0  0  0  0
   -3.3499    0.5277   -3.9477 C   0  0  0  0  0  0  0  0  0  0  0  0
    0.2425   -1.0462   -0.1627 C   0  0  0  0  0  0  0  0  0  0  0  0
   -5.8928    0.1726   -2.7537 C   0  0  0  0  0  0  0  0  0  0  0  0
    1.0932   -1.7097    0.7217 C   0  0  0  0  0  0  0  0  0  0  0  0
   -3.4914   -0.2072   -2.7808 C   0  0  0  0  0  0  0  0  0  0  0  0
   -0.3020   -1.7261   -1.2528 C   0  0  0  0  0  0  0  0  0  0  0  0
    0.0112   -3.0685   -1.4676 C   0  0  0  0  0  0  0  0  0  0  0  0
   -4.7568   -0.3843   -2.1860 C   0  0  0  0  0  0  0  0  0  0  0  0
    1.3955   -3.0559    0.5152 C   0  0  0  0  0  0  0  0  0  0  0  0
    0.8723   -3.7291   -0.5910 C   0  0  0  0  0  0  0  0  0  0  0  0
   -2.5003   -0.9022   -1.9625 C   0  0  0  0  0  0  0  0  0  0  0  0
   -3.2197   -1.5291   -0.8133 C   0  0  0  0  0  0  0  0  0  0  0  0
   -1.1927   -0.9978   -2.1480 C   0  0  0  0  0  0  0  0  0  0  0  0
   -0.5548   -3.7929   -2.6264 C   0  0  0  0  0  0  0  0  0  0  0  0
    2.0405   -5.5508    4.4148 C   0  0  0  0  0  0  0  0  0  0  0  0
   -4.7002   -1.2108   -0.9271 C   0  0  0  0  0  0  0  0  0  0  0  0
    2.2907   -5.5081   -0.1269 C   0  0  0  0  0  0  0  0  0  0  0  0
    2.1777   -5.0885    1.3327 C   0  0  1  0  0  0  0  0  0  0  0  0
    3.2756   -5.1582    3.5956 C   0  0  0  0  0  0  0  0  0  0  0  0
    3.3286   -5.6428    2.1594 C   0  0  0  0  0  0  0  0  0  0  0  0
   -2.7162   -2.2307    0.1400 N   0  0  0  0  0  0  0  0  0  0  0  0
   -1.6769   -4.4004   -2.4804 O   0  5  0  0  0  0  0  0  0  0  0  0
    1.6860   -4.7457    5.3189 O   0  5  0  0  0  0  0  0  0  0  0  0
    0.0989   -3.7856   -3.7321 O   0  0  0  0  0  0  0  0  0  0  0  0
    1.5143   -6.6470    4.0661 O   0  0  0  0  0  0  0  0  0  0  0  0
    1.1574   -5.0406   -0.8656 O   0  0  0  0  0  0  0  0  0  0  0  0
    2.2195   -3.6582    1.4292 O   0  0  0  0  0  0  0  0  0  0  0  0
   -1.3367   -2.3277   -0.0612 O   0  0  0  0  0  0  0  0  0  0  0  0
   -4.4077    1.6698   -5.4355 H   0  0  0  0  0  0  0  0  0  0  0  0
   -6.6311    1.3585   -4.3924 H   0  0  0  0  0  0  0  0  0  0  0  0
   -2.3822    0.6716   -4.4165 H   0  0  0  0  0  0  0  0  0  0  0  0
    0.0101    0.0011    0.0160 H   0  0  0  0  0  0  0  0  0  0  0  0
   -6.8689    0.0401   -2.2992 H   0  0  0  0  0  0  0  0  0  0  0  0
    1.5048   -1.1756    1.5737 H   0  0  0  0  0  0  0  0  0  0  0  0
   -0.7374   -0.4957   -2.9838 H   0  0  0  0  0  0  0  0  0  0  0  0
   -5.0255   -0.6359   -0.0558 H   0  0  0  0  0  0  0  0  0  0  0  0
   -5.2729   -2.1363   -1.0299 H   0  0  0  0  0  0  0  0  0  0  0  0
    3.1996   -5.1118   -0.5977 H   0  0  0  0  0  0  0  0  0  0  0  0
    2.3116   -6.5993   -0.2155 H   0  0  0  0  0  0  0  0  0  0  0  0
    1.2265   -5.4302    1.7622 H   0  0  0  0  0  0  0  0  0  0  0  0
    4.1389   -5.5833    4.1229 H   0  0  0  0  0  0  0  0  0  0  0  0
    3.3842   -4.0669    3.6296 H   0  0  0  0  0  0  0  0  0  0  0  0
    3.3008   -6.7293    2.0967 H   0  0  0  0  0  0  0  0  0  0  0  0
    4.2524   -5.3047    1.6905 H   0  0  0  0  0  0  0  0  0  0  0  0
   -1.0642   -2.8669    0.7006 H   0  0  0  0  0  0  0  0  0  0  0  0
  1  2  1  0  0  0  0
  1  3  2  0  0  0  0
  2  5  2  0  0  0  0
  3  7  1  0  0  0  0
  4  6  2  0  0  0  0
  4  8  1  0  0  0  0
  5 10  1  0  0  0  0
  6 11  1  0  0  0  0
  7 10  2  0  0  0  0
  7 13  1  0  0  0  0
  8  9  2  0  0  0  0
  8 15  1  0  0  0  0
  9 12  1  0  0  0  0
  9 16  1  0  0  0  0
 10 18  1  0  0  0  0
 11 12  2  0  0  0  0
 11 29  1  0  0  0  0
 12 28  1  0  0  0  0
 13 14  1  0  0  0  0
 13 15  2  0  0  0  0
 14 18  1  0  0  0  0
 14 23  2  0  0  0  0
 16 24  1  0  0  0  0
 16 26  2  0  0  0  0
 17 21  1  0  0  0  0
 17 25  1  0  0  0  0
 17 27  2  0  0  0  0
 19 20  1  0  0  0  0
 19 28  1  0  0  0  0
 20 22  1  0  0  0  0
 20 29  1  0  0  0  0
 21 22  1  0  0  0  0
 23 30  1  0  0  0  0
  1 31  1  0  0  0  0
  2 32  1  0  0  0  0
  3 33  1  0  0  0  0
  4 34  1  0  0  0  0
  5 35  1  0  0  0  0
  6 36  1  0  0  0  0
 15 37  1  0  0  0  0
 18 38  1  0  0  0  0
 18 39  1  0  0  0  0
 19 40  1  0  0  0  0
 19 41  1  0  0  0  0
 20 42  1  0  0  0  0
 21 43  1  0  0  0  0
 21 44  1  0  0  0  0
 22 45  1  0  0  0  0
 22 46  1  0  0  0  0
 30 47  1  0  0  0  0
M  CHG  2  24  -1  25  -1
M  END
$$$$
