AVX38748_3
  -OEChem-04011314583D

 67 70  0     1  0  0  0  0  0999 V2000
    0.8227    2.4972    0.7613 C   0  0  0  0  0  0  0  0  0  0  0  0
   -0.4669    2.5713    0.2131 C   0  0  0  0  0  0  0  0  0  0  0  0
    1.5390    1.2996    0.7338 C   0  0  0  0  0  0  0  0  0  0  0  0
   -1.0594    1.4490   -0.3711 C   0  0  0  0  0  0  0  0  0  0  0  0
   -2.4841   -3.8463   -1.4786 C   0  0  0  0  0  0  0  0  0  0  0  0
   -2.8331   -4.8526   -2.3797 C   0  0  0  0  0  0  0  0  0  0  0  0
   -3.0748   -2.1672   -3.1149 C   0  0  0  0  0  0  0  0  0  0  0  0
    0.9389    0.1885    0.1645 C   0  0  0  0  0  0  0  0  0  0  0  0
   -0.3497    0.2584   -0.3845 C   0  0  0  0  0  0  0  0  0  0  0  0
   -2.5995   -2.5057   -1.8477 C   0  0  0  0  0  0  0  0  0  0  0  0
   -3.2953   -4.5149   -3.6520 C   0  0  0  0  0  0  0  0  0  0  0  0
   -3.4371   -3.1728   -4.0115 C   0  0  0  0  0  0  0  0  0  0  0  0
   -3.2044   -0.7465   -3.4986 C   0  0  0  0  0  0  0  0  0  0  0  0
    0.1187   -3.7704    1.5082 C   0  0  0  0  0  0  0  0  0  0  0  0
   -3.9889   -8.6805   -7.4778 C   0  0  0  0  0  0  0  0  0  0  0  0
    1.5227   -1.1831   -0.0012 C   0  0  0  0  0  0  0  0  0  0  0  0
   -4.5717   -3.8476   -5.9213 C   0  0  0  0  0  0  0  0  0  0  0  0
   -0.7357   -1.0684   -0.9834 C   0  0  1  0  0  0  0  0  0  0  0  0
    0.2556   -2.0223   -0.2630 C   0  0  2  0  0  0  0  0  0  0  0  0
   -3.7231   -5.1108   -5.8600 C   0  0  2  0  0  0  0  0  0  0  0  0
   -2.2053   -1.4449   -0.8546 C   0  0  0  0  0  0  0  0  0  0  0  0
   -0.5652   -4.0428    2.8381 C   0  0  0  0  0  0  0  0  0  0  0  0
   -3.4775   -7.4784   -6.6752 C   0  0  0  0  0  0  0  0  0  0  0  0
   -4.3569   -6.2429   -6.6550 C   0  0  0  0  0  0  0  0  0  0  0  0
   -0.8014   -5.5264    3.1167 C   0  0  0  0  0  0  0  0  0  0  0  0
   -1.7460   -6.1687    2.0964 C   0  0  0  0  0  0  0  0  0  0  0  0
   -1.9338   -7.6508    2.3869 C   0  0  0  0  0  0  0  0  0  0  0  0
   -0.2619   -2.5453    0.9850 N   0  0  0  0  0  0  0  0  0  0  0  0
   -2.8880   -8.2210    1.4056 N   0  3  0  0  0  0  0  0  0  0  0  0
   -4.3144   -0.1444   -3.2593 O   0  5  0  0  0  0  0  0  0  0  0  0
   -3.2520   -9.7044   -7.4882 O   0  5  0  0  0  0  0  0  0  0  0  0
   -2.2023   -0.1672   -4.0573 O   0  0  0  0  0  0  0  0  0  0  0  0
    0.9206   -4.5446    0.9930 O   0  0  0  0  0  0  0  0  0  0  0  0
   -5.1125   -8.4959   -8.0284 O   0  0  0  0  0  0  0  0  0  0  0  0
   -3.9165   -2.7778   -5.2326 O   0  0  0  0  0  0  0  0  0  0  0  0
   -3.6026   -5.5469   -4.4989 O   0  0  0  0  0  0  0  0  0  0  0  0
    1.2689    3.3828    1.2056 H   0  0  0  0  0  0  0  0  0  0  0  0
   -1.0066    3.5142    0.2372 H   0  0  0  0  0  0  0  0  0  0  0  0
    2.5395    1.2462    1.1494 H   0  0  0  0  0  0  0  0  0  0  0  0
   -2.0502    1.5210   -0.8061 H   0  0  0  0  0  0  0  0  0  0  0  0
   -2.1181   -4.1177   -0.4919 H   0  0  0  0  0  0  0  0  0  0  0  0
   -2.7295   -5.8940   -2.0877 H   0  0  0  0  0  0  0  0  0  0  0  0
    2.1846   -1.1908   -0.8739 H   0  0  0  0  0  0  0  0  0  0  0  0
    2.0709   -1.5091    0.8880 H   0  0  0  0  0  0  0  0  0  0  0  0
   -4.7174   -3.5283   -6.9587 H   0  0  0  0  0  0  0  0  0  0  0  0
   -5.5609   -3.9963   -5.4694 H   0  0  0  0  0  0  0  0  0  0  0  0
   -0.4715   -1.0323   -2.0492 H   0  0  0  0  0  0  0  0  0  0  0  0
    0.4807   -2.8974   -0.8823 H   0  0  0  0  0  0  0  0  0  0  0  0
   -2.7124   -4.9185   -6.2452 H   0  0  0  0  0  0  0  0  0  0  0  0
   -2.8281   -0.5541   -0.9974 H   0  0  0  0  0  0  0  0  0  0  0  0
   -2.4080   -1.7972    0.1636 H   0  0  0  0  0  0  0  0  0  0  0  0
   -1.5134   -3.4938    2.8779 H   0  0  0  0  0  0  0  0  0  0  0  0
    0.0856   -3.6345    3.6211 H   0  0  0  0  0  0  0  0  0  0  0  0
   -2.5176   -7.1968   -7.1262 H   0  0  0  0  0  0  0  0  0  0  0  0
   -3.2662   -7.8078   -5.6502 H   0  0  0  0  0  0  0  0  0  0  0  0
   -5.3376   -6.4500   -6.2301 H   0  0  0  0  0  0  0  0  0  0  0  0
   -4.5033   -5.8782   -7.6713 H   0  0  0  0  0  0  0  0  0  0  0  0
    0.1525   -6.0672    3.1341 H   0  0  0  0  0  0  0  0  0  0  0  0
   -1.2418   -5.6252    4.1167 H   0  0  0  0  0  0  0  0  0  0  0  0
   -2.7174   -5.6594    2.1263 H   0  0  0  0  0  0  0  0  0  0  0  0
   -1.3497   -6.0400    1.0823 H   0  0  0  0  0  0  0  0  0  0  0  0
   -2.3588   -7.8236    3.3800 H   0  0  0  0  0  0  0  0  0  0  0  0
   -0.9995   -8.2103    2.2830 H   0  0  0  0  0  0  0  0  0  0  0  0
   -0.9433   -1.9800    1.4797 H   0  0  0  0  0  0  0  0  0  0  0  0
   -3.5830   -7.5227    1.1199 H   0  0  0  0  0  0  0  0  0  0  0  0
   -3.3908   -9.0213    1.8050 H   0  0  0  0  0  0  0  0  0  0  0  0
   -2.3999   -8.5437    0.5629 H   0  0  0  0  0  0  0  0  0  0  0  0
  1  2  1  0  0  0  0
  1  3  2  0  0  0  0
  2  4  2  0  0  0  0
  3  8  1  0  0  0  0
  4  9  1  0  0  0  0
  5  6  2  0  0  0  0
  5 10  1  0  0  0  0
  6 11  1  0  0  0  0
  7 10  2  0  0  0  0
  7 12  1  0  0  0  0
  7 13  1  0  0  0  0
  8  9  2  0  0  0  0
  8 16  1  0  0  0  0
  9 18  1  0  0  0  0
 10 21  1  0  0  0  0
 11 12  2  0  0  0  0
 11 36  1  0  0  0  0
 12 35  1  0  0  0  0
 13 30  1  0  0  0  0
 13 32  2  0  0  0  0
 14 22  1  0  0  0  0
 14 28  1  0  0  0  0
 14 33  2  0  0  0  0
 15 23  1  0  0  0  0
 15 31  1  0  0  0  0
 15 34  2  0  0  0  0
 16 19  1  0  0  0  0
 17 20  1  0  0  0  0
 17 35  1  0  0  0  0
 18 19  1  0  0  0  0
 18 21  1  0  0  0  0
 19 28  1  0  0  0  0
 20 24  1  0  0  0  0
 20 36  1  0  0  0  0
 22 25  1  0  0  0  0
 23 24  1  0  0  0  0
 25 26  1  0  0  0  0
 26 27  1  0  0  0  0
 27 29  1  0  0  0  0
  1 37  1  0  0  0  0
  2 38  1  0  0  0  0
  3 39  1  0  0  0  0
  4 40  1  0  0  0  0
  5 41  1  0  0  0  0
  6 42  1  0  0  0  0
 16 43  1  0  0  0  0
 16 44  1  0  0  0  0
 17 45  1  0  0  0  0
 17 46  1  0  0  0  0
 18 47  1  0  0  0  0
 19 48  1  0  0  0  0
 20 49  1  0  0  0  0
 21 50  1  0  0  0  0
 21 51  1  0  0  0  0
 22 52  1  0  0  0  0
 22 53  1  0  0  0  0
 23 54  1  0  0  0  0
 23 55  1  0  0  0  0
 24 56  1  0  0  0  0
 24 57  1  0  0  0  0
 25 58  1  0  0  0  0
 25 59  1  0  0  0  0
 26 60  1  0  0  0  0
 26 61  1  0  0  0  0
 27 62  1  0  0  0  0
 27 63  1  0  0  0  0
 28 64  1  0  0  0  0
 29 65  1  0  0  0  0
 29 66  1  0  0  0  0
 29 67  1  0  0  0  0
M  CHG  3  29   1  30  -1  31  -1
M  END
$$$$
