@<TRIPOS>MOLECULE
AVX38753_3
   71    74     0     0     0
SMALL
NO_CHARGES

@<TRIPOS>ATOM
      1 C1         -6.1074    0.0448   -5.9344 C.ar      1 MOL         0.0000
      2 C2          2.1922    2.5319   -4.4558 C.ar      1 MOL         0.0000
      3 C3         -5.2171   -1.0258   -6.0165 C.ar      1 MOL         0.0000
      4 C4         -5.7309    1.3027   -6.4051 C.ar      1 MOL         0.0000
      5 C5          2.4639    1.7723   -3.3179 C.ar      1 MOL         0.0000
      6 C6          1.3524    2.0260   -5.4480 C.ar      1 MOL         0.0000
      7 C7         -3.9502   -0.8385   -6.5691 C.ar      1 MOL         0.0000
      8 C8         -4.4639    1.4900   -6.9577 C.ar      1 MOL         0.0000
      9 C9          1.8960    0.5067   -3.1723 C.ar      1 MOL         0.0000
     10 C10        -3.2512   -1.9004   -1.0767 C.ar      1 MOL         0.0000
     11 C11        -4.5948   -1.8159   -0.7109 C.ar      1 MOL         0.0000
     12 C12         0.7845    0.7603   -5.3024 C.ar      1 MOL         0.0000
     13 C13        -3.4112    0.2432   -2.1837 C.ar      1 MOL         0.0000
     14 C14        -3.5735    0.4194   -7.0397 C.ar      1 MOL         0.0000
     15 C15         1.0562    0.0006   -4.1645 C.ar      1 MOL         0.0000
     16 C16        -2.6589   -0.8698   -1.8075 C.ar      1 MOL         0.0000
     17 C17        -5.3438   -0.6966   -1.0748 C.ar      1 MOL         0.0000
     18 C18        -4.7582    0.3222   -1.8295 C.ar      1 MOL         0.0000
     19 C19        -0.6786   -4.8716   -3.8546 C.2       1 MOL         0.0000
     20 C20        -1.2017   -3.7925   -3.2623 C.2       1 MOL         0.0000
     21 C21        -0.0882    0.2558   -6.3539 C.2       1 MOL         0.0000
     22 C22        -2.7827    1.3278   -2.9653 C.2       1 MOL         0.0000
     23 C23        -8.6360    0.5551    1.9983 C.2       1 MOL         0.0000
     24 C24        -6.8648    1.2509   -2.1334 C.3       1 MOL         0.0000
     25 C25        -7.2151    0.6528   -0.7773 C.3       1 MOL         0.0000
     26 C26        -2.2099    0.6218   -7.6344 C.3       1 MOL         0.0000
     27 C27         0.4594   -1.3638   -3.9824 C.3       1 MOL         0.0000
     28 C28        -1.2157   -0.9880   -2.1764 C.3       1 MOL         0.0000
     29 C29        -1.7059   -2.5979   -4.0028 C.3       1 MOL         0.0000
     30 C30        -9.0797   -0.1484    0.7102 C.3       1 MOL         0.0000
     31 C31        -8.7211    0.5280   -0.5991 C.3       1 MOL         0.0000
     32 N1         -1.2360    1.0033   -6.6370 N.am      1 MOL         0.0000
     33 N2         -1.0008   -1.3248   -3.6097 N.4       1 MOL         0.0000
     34 O1         -2.2297    2.3003   -2.3324 O.co2     1 MOL         0.0000
     35 O2         -8.3865   -0.1873    2.9873 O.co2     1 MOL         0.0000
     36 O3          0.1849   -0.8033   -6.9437 O.2       1 MOL         0.0000
     37 O4         -2.8133    1.2578   -4.2484 O.co2     1 MOL         0.0000
     38 O5         -8.5620    1.8141    1.9022 O.co2     1 MOL         0.0000
     39 O6         -5.4491    1.4300   -2.2445 O.3       1 MOL         0.0000
     40 O7         -6.6517   -0.6615   -0.6684 O.3       1 MOL         0.0000
     41 H1         -7.0944   -0.1015   -5.5054 H         1 MOL         0.0000
     42 H2          2.6341    3.5177   -4.5696 H         1 MOL         0.0000
     43 H3         -5.5106   -2.0056   -5.6510 H         1 MOL         0.0000
     44 H4         -6.4242    2.1362   -6.3424 H         1 MOL         0.0000
     45 H5          3.1181    2.1667   -2.5458 H         1 MOL         0.0000
     46 H6          1.1493    2.6273   -6.3305 H         1 MOL         0.0000
     47 H7         -3.2630   -1.6784   -6.6287 H         1 MOL         0.0000
     48 H8         -4.1791    2.4736   -7.3217 H         1 MOL         0.0000
     49 H9          2.1138   -0.0768   -2.2816 H         1 MOL         0.0000
     50 H10        -2.6725   -2.7723   -0.7833 H         1 MOL         0.0000
     51 H11        -5.0453   -2.6183   -0.1331 H         1 MOL         0.0000
     52 H12        -0.3334   -5.7111   -3.2610 H         1 MOL         0.0000
     53 H13        -0.5865   -4.9385   -4.9329 H         1 MOL         0.0000
     54 H14        -1.2762   -3.7783   -2.1781 H         1 MOL         0.0000
     55 H15        -7.1990    0.6124   -2.9611 H         1 MOL         0.0000
     56 H16        -7.3297    2.2351   -2.2542 H         1 MOL         0.0000
     57 H17        -6.8037    1.2669    0.0353 H         1 MOL         0.0000
     58 H18        -1.8580   -0.2975   -8.1151 H         1 MOL         0.0000
     59 H19        -2.2276    1.4034   -8.4011 H         1 MOL         0.0000
     60 H20         0.5337   -1.9544   -4.9018 H         1 MOL         0.0000
     61 H21         0.9721   -1.9169   -3.1881 H         1 MOL         0.0000
     62 H22        -0.6760   -0.0500   -1.9941 H         1 MOL         0.0000
     63 H23        -0.7156   -1.7732   -1.5950 H         1 MOL         0.0000
     64 H24        -2.7674   -2.4409   -3.7881 H         1 MOL         0.0000
     65 H25        -1.5800   -2.6948   -5.0858 H         1 MOL         0.0000
     66 H26       -10.1737   -0.2168    0.7616 H         1 MOL         0.0000
     67 H27        -8.6930   -1.1751    0.7226 H         1 MOL         0.0000
     68 H28        -9.1569    1.5228   -0.6742 H         1 MOL         0.0000
     69 H29        -9.0950   -0.0643   -1.4339 H         1 MOL         0.0000
     70 H30        -1.4428    1.8269   -6.0814 H         1 MOL         0.0000
     71 H31        -1.4233   -0.5712   -4.1762 H         1 MOL         0.0000
@<TRIPOS>BOND
     1    1    3 ar
     2    1    4 ar
     3    2    5 ar
     4    2    6 ar
     5    3    7 ar
     6    4    8 ar
     7    5    9 ar
     8    6   12 ar
     9    7   14 ar
    10    8   14 ar
    11    9   15 ar
    12   10   11 ar
    13   10   16 ar
    14   11   17 ar
    15   12   15 ar
    16   12   21 1
    17   13   16 ar
    18   13   18 ar
    19   13   22 1
    20   14   26 1
    21   15   27 1
    22   16   28 1
    23   17   18 ar
    24   17   40 1
    25   18   39 1
    26   19   20 2
    27   20   29 1
    28   21   32 am
    29   21   36 2
    30   22   34 1
    31   22   37 2
    32   23   30 1
    33   23   35 1
    34   23   38 2
    35   24   25 1
    36   24   39 1
    37   25   31 1
    38   25   40 1
    39   26   32 1
    40   27   33 1
    41   28   33 1
    42   29   33 1
    43   30   31 1
    44    1   41 1
    45    2   42 1
    46    3   43 1
    47    4   44 1
    48    5   45 1
    49    6   46 1
    50    7   47 1
    51    8   48 1
    52    9   49 1
    53   10   50 1
    54   11   51 1
    55   19   52 1
    56   19   53 1
    57   20   54 1
    58   24   55 1
    59   24   56 1
    60   25   57 1
    61   26   58 1
    62   26   59 1
    63   27   60 1
    64   27   61 1
    65   28   62 1
    66   28   63 1
    67   29   64 1
    68   29   65 1
    69   30   66 1
    70   30   67 1
    71   31   68 1
    72   31   69 1
    73   32   70 1
    74   33   71 1
