@<TRIPOS>MOLECULE
AVX38786_0
   71    74     0     0     0
SMALL
NO_CHARGES

@<TRIPOS>ATOM
      1 C1          7.1225   -2.1197    4.8276 C.ar      1 MOL         0.0000
      2 C2          7.4569   -1.8441    3.5018 C.ar      1 MOL         0.0000
      3 C3          5.7995   -1.9988    5.2527 C.ar      1 MOL         0.0000
      4 C4          6.4684   -1.4476    2.6011 C.ar      1 MOL         0.0000
      5 C5          0.6033   -3.5877    1.6501 C.ar      1 MOL         0.0000
      6 C6          0.8854    1.8214    4.3092 C.ar      1 MOL         0.0000
      7 C7         -0.1870   -0.3432    4.2731 C.ar      1 MOL         0.0000
      8 C8         -0.2485   -4.6424    1.3213 C.ar      1 MOL         0.0000
      9 C9          0.0111    2.2711    3.3197 C.ar      1 MOL         0.0000
     10 C10        -1.0613    0.1065    3.2836 C.ar      1 MOL         0.0000
     11 C11         4.8109   -1.6023    4.3521 C.ar      1 MOL         0.0000
     12 C12         0.5160   -2.7967   -0.6329 C.ar      1 MOL         0.0000
     13 C13         0.7864    0.5142    4.7858 C.ar      1 MOL         0.0000
     14 C14         5.1454   -1.3266    3.0262 C.ar      1 MOL         0.0000
     15 C15         0.9894   -2.6694    0.6732 C.ar      1 MOL         0.0000
     16 C16        -0.7112   -4.7783    0.0121 C.ar      1 MOL         0.0000
     17 C17        -0.3469   -3.8433   -0.9593 C.ar      1 MOL         0.0000
     18 C18        -0.9623    1.4136    2.8070 C.ar      1 MOL         0.0000
     19 C19         3.4375   -1.4833    4.8226 C.2       1 MOL         0.0000
     20 C20         0.9196   -1.8170   -1.6623 C.2       1 MOL         0.0000
     21 C21        -3.5726   -9.5069   -1.3744 C.2       1 MOL         0.0000
     22 C22        -1.9182   -4.7791   -2.3895 C.3       1 MOL         0.0000
     23 C23        -1.6549   -6.0907   -1.6614 C.3       1 MOL         0.0000
     24 C24         3.9388   -2.9292    0.6058 C.3       1 MOL         0.0000
     25 C25        -2.7871    0.9242    1.3626 C.3       1 MOL         0.0000
     26 C26         1.7270    0.0303    5.8513 C.3       1 MOL         0.0000
     27 C27         4.1025   -0.8977    2.0366 C.3       1 MOL         0.0000
     28 C28         1.9102   -1.5568    1.0567 C.3       1 MOL         0.0000
     29 C29        -2.5090   -8.4144   -1.2133 C.3       1 MOL         0.0000
     30 C30        -2.7997   -7.0734   -1.8592 C.3       1 MOL         0.0000
     31 N1          3.0465   -0.2385    5.3265 N.am      1 MOL         0.0000
     32 N2          3.2198   -2.0313    1.5800 N.4       1 MOL         0.0000
     33 O1          0.1955   -0.7684   -1.8299 O.co2     1 MOL         0.0000
     34 O2         -3.3236  -10.6187   -0.8329 O.co2     1 MOL         0.0000
     35 O3          2.6735   -2.4627    4.7872 O.2       1 MOL         0.0000
     36 O4          1.9792   -2.0510   -2.3511 O.co2     1 MOL         0.0000
     37 O5         -4.5913   -9.1455   -2.0314 O.co2     1 MOL         0.0000
     38 O6         -0.7945   -3.9035   -2.2527 O.3       1 MOL         0.0000
     39 O7         -1.5279   -5.8455   -0.2539 O.3       1 MOL         0.0000
     40 O8         -1.8161    1.8530    1.8424 O.3       1 MOL         0.0000
     41 H1          7.8919   -2.4287    5.5294 H         1 MOL         0.0000
     42 H2          8.4873   -1.9382    3.1714 H         1 MOL         0.0000
     43 H3          5.5518   -2.2154    6.2888 H         1 MOL         0.0000
     44 H4          6.7396   -1.2357    1.5702 H         1 MOL         0.0000
     45 H5          0.9650   -3.4929    2.6707 H         1 MOL         0.0000
     46 H6          1.6407    2.4962    4.7029 H         1 MOL         0.0000
     47 H7         -0.2715   -1.3635    4.6384 H         1 MOL         0.0000
     48 H8         -0.5351   -5.3593    2.0859 H         1 MOL         0.0000
     49 H9          0.0931    3.2907    2.9526 H         1 MOL         0.0000
     50 H10        -1.8175   -0.5661    2.8886 H         1 MOL         0.0000
     51 H11        -2.0688   -4.9534   -3.4601 H         1 MOL         0.0000
     52 H12        -2.8069   -4.2658   -2.0003 H         1 MOL         0.0000
     53 H13        -0.7194   -6.5481   -2.0116 H         1 MOL         0.0000
     54 H14         4.1510   -2.3457   -0.2920 H         1 MOL         0.0000
     55 H15         4.8614   -3.2674    1.0814 H         1 MOL         0.0000
     56 H16         3.2819   -3.7714    0.3802 H         1 MOL         0.0000
     57 H17        -3.4030    1.4026    0.5971 H         1 MOL         0.0000
     58 H18        -3.4139    0.5895    2.1930 H         1 MOL         0.0000
     59 H19        -2.2721    0.0644    0.9278 H         1 MOL         0.0000
     60 H20         1.8260    0.7767    6.6470 H         1 MOL         0.0000
     61 H21         1.3566   -0.8907    6.3137 H         1 MOL         0.0000
     62 H22         3.4410   -0.1362    2.4634 H         1 MOL         0.0000
     63 H23         4.5616   -0.4744    1.1366 H         1 MOL         0.0000
     64 H24         2.1352   -0.9080    0.2007 H         1 MOL         0.0000
     65 H25         1.4729   -0.9261    1.8413 H         1 MOL         0.0000
     66 H26        -1.5927   -8.8117   -1.6679 H         1 MOL         0.0000
     67 H27        -2.3049   -8.2815   -0.1434 H         1 MOL         0.0000
     68 H28        -3.7083   -6.6217   -1.4649 H         1 MOL         0.0000
     69 H29        -2.9295   -7.2023   -2.9333 H         1 MOL         0.0000
     70 H30         3.7297    0.5091    5.3903 H         1 MOL         0.0000
     71 H31         3.0316   -2.6060    2.4177 H         1 MOL         0.0000
@<TRIPOS>BOND
     1    1    2 ar
     2    1    3 ar
     3    2    4 ar
     4    3   11 ar
     5    4   14 ar
     6    5    8 ar
     7    5   15 ar
     8    6    9 ar
     9    6   13 ar
    10    7   10 ar
    11    7   13 ar
    12    8   16 ar
    13    9   18 ar
    14   10   18 ar
    15   11   14 ar
    16   11   19 1
    17   12   15 ar
    18   12   17 ar
    19   12   20 1
    20   13   26 1
    21   14   27 1
    22   15   28 1
    23   16   17 ar
    24   16   39 1
    25   17   38 1
    26   18   40 1
    27   19   31 am
    28   19   35 2
    29   20   33 1
    30   20   36 2
    31   21   29 1
    32   21   34 1
    33   21   37 2
    34   22   23 1
    35   22   38 1
    36   23   30 1
    37   23   39 1
    38   24   32 1
    39   25   40 1
    40   26   31 1
    41   27   32 1
    42   28   32 1
    43   29   30 1
    44    1   41 1
    45    2   42 1
    46    3   43 1
    47    4   44 1
    48    5   45 1
    49    6   46 1
    50    7   47 1
    51    8   48 1
    52    9   49 1
    53   10   50 1
    54   22   51 1
    55   22   52 1
    56   23   53 1
    57   24   54 1
    58   24   55 1
    59   24   56 1
    60   25   57 1
    61   25   58 1
    62   25   59 1
    63   26   60 1
    64   26   61 1
    65   27   62 1
    66   27   63 1
    67   28   64 1
    68   28   65 1
    69   29   66 1
    70   29   67 1
    71   30   68 1
    72   30   69 1
    73   31   70 1
    74   32   71 1
