AVX38780_0
  -OEChem-04011314593D

 75 78  0     1  0  0  0  0  0999 V2000
    5.9886   -0.0538   -2.1782 C   0  0  0  0  0  0  0  0  0  0  0  0
    6.3504   -1.2103   -1.4875 C   0  0  0  0  0  0  0  0  0  0  0  0
    5.0565    0.8252   -1.6266 C   0  0  0  0  0  0  0  0  0  0  0  0
    5.7801   -1.4879   -0.2452 C   0  0  0  0  0  0  0  0  0  0  0  0
   -0.1342   -2.7316    1.8471 C   0  0  0  0  0  0  0  0  0  0  0  0
   -0.6740    1.1097    0.0526 C   0  0  0  0  0  0  0  0  0  0  0  0
    0.2281    2.1584    2.0334 C   0  0  0  0  0  0  0  0  0  0  0  0
   -1.0876   -3.7451    1.7464 C   0  0  0  0  0  0  0  0  0  0  0  0
   -1.6483    0.4819    0.8286 C   0  0  0  0  0  0  0  0  0  0  0  0
   -0.7463    1.5307    2.8094 C   0  0  0  0  0  0  0  0  0  0  0  0
    4.4861    0.5476   -0.3843 C   0  0  0  0  0  0  0  0  0  0  0  0
    0.9782   -3.5729   -0.1279 C   0  0  0  0  0  0  0  0  0  0  0  0
    0.2643    1.9478    0.6550 C   0  0  0  0  0  0  0  0  0  0  0  0
    4.8480   -0.6090    0.3065 C   0  0  0  0  0  0  0  0  0  0  0  0
    0.9003   -2.6490    0.9145 C   0  0  0  0  0  0  0  0  0  0  0  0
   -1.0023   -4.6776    0.7122 C   0  0  0  0  0  0  0  0  0  0  0  0
    0.0173   -4.5783   -0.2372 C   0  0  0  0  0  0  0  0  0  0  0  0
   -1.6845    0.6925    2.2070 C   0  0  0  0  0  0  0  0  0  0  0  0
    3.2005   -1.5819    5.1214 C   0  0  0  0  0  0  0  0  0  0  0  0
    2.5507   -1.8408    3.9814 C   0  0  0  0  0  0  0  0  0  0  0  0
    3.5149    1.4820    0.1683 C   0  0  0  0  0  0  0  0  0  0  0  0
    2.0697   -3.4764   -1.1187 C   0  0  0  0  0  0  0  0  0  0  0  0
   -4.4983   -9.1761    0.8235 C   0  0  0  0  0  0  0  0  0  0  0  0
   -1.0650   -6.1927   -1.5070 C   0  0  0  0  0  0  0  0  0  0  0  0
   -1.5828   -6.7443   -0.1852 C   0  0  2  0  0  0  0  0  0  0  0  0
   -2.6156    0.3400    4.3667 C   0  0  0  0  0  0  0  0  0  0  0  0
    1.3128    2.6241   -0.1802 C   0  0  0  0  0  0  0  0  0  0  0  0
    4.2499   -0.9325    1.6439 C   0  0  0  0  0  0  0  0  0  0  0  0
    1.9102   -1.5569    1.0567 C   0  0  0  0  0  0  0  0  0  0  0  0
    3.0773   -2.7334    2.9064 C   0  0  0  0  0  0  0  0  0  0  0  0
   -3.2848   -8.2425    0.9052 C   0  0  0  0  0  0  0  0  0  0  0  0
   -2.8130   -7.6156   -0.3927 C   0  0  0  0  0  0  0  0  0  0  0  0
    2.3569    1.7092   -0.5824 N   0  0  0  0  0  0  0  0  0  0  0  0
    3.2198   -2.0313    1.5800 N   0  3  2  0  0  0  0  0  0  0  0  0
    1.8813   -2.7660   -2.1731 O   0  5  0  0  0  0  0  0  0  0  0  0
   -4.8850   -9.6921    1.9078 O   0  5  0  0  0  0  0  0  0  0  0  0
    3.7369    2.0544    1.2487 O   0  0  0  0  0  0  0  0  0  0  0  0
    3.1659   -4.1068   -0.8885 O   0  0  0  0  0  0  0  0  0  0  0  0
   -4.9764   -9.3039   -0.3405 O   0  0  0  0  0  0  0  0  0  0  0  0
    0.1349   -5.4426   -1.2936 O   0  0  0  0  0  0  0  0  0  0  0  0
   -1.9553   -5.6612    0.6781 O   0  0  0  0  0  0  0  0  0  0  0  0
   -2.6362    0.0809    2.9638 O   0  0  0  0  0  0  0  0  0  0  0  0
    6.4325    0.1630   -3.1456 H   0  0  0  0  0  0  0  0  0  0  0  0
    7.0761   -1.8945   -1.9176 H   0  0  0  0  0  0  0  0  0  0  0  0
    4.7820    1.7225   -2.1753 H   0  0  0  0  0  0  0  0  0  0  0  0
    6.0693   -2.3915    0.2849 H   0  0  0  0  0  0  0  0  0  0  0  0
   -0.2036   -2.0133    2.6598 H   0  0  0  0  0  0  0  0  0  0  0  0
   -0.6531    0.9399   -1.0206 H   0  0  0  0  0  0  0  0  0  0  0  0
    0.9552    2.8098    2.5114 H   0  0  0  0  0  0  0  0  0  0  0  0
   -1.8833   -3.8086    2.4835 H   0  0  0  0  0  0  0  0  0  0  0  0
   -2.3767   -0.1697    0.3534 H   0  0  0  0  0  0  0  0  0  0  0  0
   -0.7695    1.6990    3.8824 H   0  0  0  0  0  0  0  0  0  0  0  0
    2.7625   -0.9274    5.8671 H   0  0  0  0  0  0  0  0  0  0  0  0
    4.1722   -2.0147    5.3315 H   0  0  0  0  0  0  0  0  0  0  0  0
    1.5766   -1.3856    3.8223 H   0  0  0  0  0  0  0  0  0  0  0  0
   -0.8234   -7.0066   -2.1988 H   0  0  0  0  0  0  0  0  0  0  0  0
   -1.8000   -5.5393   -1.9944 H   0  0  0  0  0  0  0  0  0  0  0  0
   -0.8046   -7.3303    0.3225 H   0  0  0  0  0  0  0  0  0  0  0  0
   -3.4267   -0.2091    4.8513 H   0  0  0  0  0  0  0  0  0  0  0  0
   -2.7318    1.4125    4.5418 H   0  0  0  0  0  0  0  0  0  0  0  0
   -1.6585    0.0076    4.7756 H   0  0  0  0  0  0  0  0  0  0  0  0
    0.8690    3.0492   -1.0871 H   0  0  0  0  0  0  0  0  0  0  0  0
    1.7821    3.4471    0.3689 H   0  0  0  0  0  0  0  0  0  0  0  0
    5.0179   -1.2622    2.3517 H   0  0  0  0  0  0  0  0  0  0  0  0
    3.7510   -0.0583    2.0759 H   0  0  0  0  0  0  0  0  0  0  0  0
    2.1180   -1.0736    0.0935 H   0  0  0  0  0  0  0  0  0  0  0  0
    1.5642   -0.7774    1.7476 H   0  0  0  0  0  0  0  0  0  0  0  0
    2.3912   -3.5695    2.7401 H   0  0  0  0  0  0  0  0  0  0  0  0
    4.0663   -3.1364    3.1463 H   0  0  0  0  0  0  0  0  0  0  0  0
   -2.4602   -8.8483    1.3017 H   0  0  0  0  0  0  0  0  0  0  0  0
   -3.4948   -7.4616    1.6469 H   0  0  0  0  0  0  0  0  0  0  0  0
   -3.5881   -7.0062   -0.8541 H   0  0  0  0  0  0  0  0  0  0  0  0
   -2.5368   -8.3970   -1.1001 H   0  0  0  0  0  0  0  0  0  0  0  0
    2.2558    1.2629   -1.4882 H   0  0  0  0  0  0  0  0  0  0  0  0
    3.5872   -2.7334    0.9171 H   0  0  0  0  0  0  0  0  0  0  0  0
  1  2  1  0  0  0  0
  1  3  2  0  0  0  0
  2  4  2  0  0  0  0
  3 11  1  0  0  0  0
  4 14  1  0  0  0  0
  5  8  2  0  0  0  0
  5 15  1  0  0  0  0
  6  9  2  0  0  0  0
  6 13  1  0  0  0  0
  7 10  1  0  0  0  0
  7 13  2  0  0  0  0
  8 16  1  0  0  0  0
  9 18  1  0  0  0  0
 10 18  2  0  0  0  0
 11 14  2  0  0  0  0
 11 21  1  0  0  0  0
 12 15  2  0  0  0  0
 12 17  1  0  0  0  0
 12 22  1  0  0  0  0
 13 27  1  0  0  0  0
 14 28  1  0  0  0  0
 15 29  1  0  0  0  0
 16 17  2  0  0  0  0
 16 41  1  0  0  0  0
 17 40  1  0  0  0  0
 18 42  1  0  0  0  0
 19 20  2  0  0  0  0
 20 30  1  0  0  0  0
 21 33  1  0  0  0  0
 21 37  2  0  0  0  0
 22 35  1  0  0  0  0
 22 38  2  0  0  0  0
 23 31  1  0  0  0  0
 23 36  1  0  0  0  0
 23 39  2  0  0  0  0
 24 25  1  0  0  0  0
 24 40  1  0  0  0  0
 25 32  1  0  0  0  0
 25 41  1  0  0  0  0
 26 42  1  0  0  0  0
 27 33  1  0  0  0  0
 28 34  1  0  0  0  0
 29 34  1  0  0  0  0
 30 34  1  0  0  0  0
 31 32  1  0  0  0  0
  1 43  1  0  0  0  0
  2 44  1  0  0  0  0
  3 45  1  0  0  0  0
  4 46  1  0  0  0  0
  5 47  1  0  0  0  0
  6 48  1  0  0  0  0
  7 49  1  0  0  0  0
  8 50  1  0  0  0  0
  9 51  1  0  0  0  0
 10 52  1  0  0  0  0
 19 53  1  0  0  0  0
 19 54  1  0  0  0  0
 20 55  1  0  0  0  0
 24 56  1  0  0  0  0
 24 57  1  0  0  0  0
 25 58  1  0  0  0  0
 26 59  1  0  0  0  0
 26 60  1  0  0  0  0
 26 61  1  0  0  0  0
 27 62  1  0  0  0  0
 27 63  1  0  0  0  0
 28 64  1  0  0  0  0
 28 65  1  0  0  0  0
 29 66  1  0  0  0  0
 29 67  1  0  0  0  0
 30 68  1  0  0  0  0
 30 69  1  0  0  0  0
 31 70  1  0  0  0  0
 31 71  1  0  0  0  0
 32 72  1  0  0  0  0
 32 73  1  0  0  0  0
 33 74  1  0  0  0  0
 34 75  1  0  0  0  0
M  CHG  3  34   1  35  -1  36  -1
M  END
$$$$
