@<TRIPOS>MOLECULE
AVX38749_0
   64    67     0     0     0
SMALL
NO_CHARGES

@<TRIPOS>ATOM
      1 C1          2.0069    1.7310   -0.6805 C.ar      1 MOL         0.0000
      2 C2          2.2404    0.4799   -1.2717 C.ar      1 MOL         0.0000
      3 C3          0.8190    1.9810    0.0082 C.ar      1 MOL         0.0000
      4 C4          1.2891   -0.5394   -1.1834 C.ar      1 MOL         0.0000
      5 C5         -2.8127   -3.8482    0.6768 C.ar      1 MOL         0.0000
      6 C6         -3.9240   -4.6610    0.4521 C.ar      1 MOL         0.0000
      7 C7         -2.1983   -4.0325   -1.6544 C.ar      1 MOL         0.0000
      8 C8         -0.1125    0.9601    0.1024 C.ar      1 MOL         0.0000
      9 C9          0.1167   -0.2913   -0.4868 C.ar      1 MOL         0.0000
     10 C10        -1.9480   -3.5390   -0.3737 C.ar      1 MOL         0.0000
     11 C11        -4.1671   -5.1662   -0.8254 C.ar      1 MOL         0.0000
     12 C12        -3.3171   -4.8341   -1.8827 C.ar      1 MOL         0.0000
     13 C13        -1.2856   -3.6953   -2.7660 C.2       1 MOL         0.0000
     14 C14        -2.0952   -0.9625    3.3436 C.2       1 MOL         0.0000
     15 C15        -8.2922   -9.0448   -1.4666 C.2       1 MOL         0.0000
     16 C16        -1.4594    1.0068    0.7597 C.3       1 MOL         0.0000
     17 C17        -4.8473   -5.7750   -3.3535 C.3       1 MOL         0.0000
     18 C18        -1.0743   -1.1908   -0.2824 C.3       1 MOL         0.0000
     19 C19        -1.7710   -0.4967    0.9214 C.3       1 MOL         0.0000
     20 C20        -5.2227   -6.7091   -2.2107 C.3       1 MOL         0.0000
     21 C21        -0.7528   -2.6669   -0.0948 C.3       1 MOL         0.0000
     22 C22        -1.3505   -1.5155    4.5459 C.3       1 MOL         0.0000
     23 C23        -6.9443   -8.3247   -1.3413 C.3       1 MOL         0.0000
     24 C24        -6.5973   -7.3247   -2.4274 C.3       1 MOL         0.0000
     25 C25        -2.2031   -1.5144    5.8124 C.3       1 MOL         0.0000
     26 C26        -1.4136   -2.0359    7.0033 C.3       1 MOL         0.0000
     27 N1         -1.3022   -0.9736    2.2078 N.am      1 MOL         0.0000
     28 N2         -2.2932   -2.0595    8.1967 N.4       1 MOL         0.0000
     29 O1         -1.5262   -2.6404   -3.4598 O.co2     1 MOL         0.0000
     30 O2         -8.5737   -9.8737   -0.5582 O.co2     1 MOL         0.0000
     31 O3         -0.2862   -4.4697   -2.9969 O.co2     1 MOL         0.0000
     32 O4         -3.2542   -0.5602    3.3963 O.2       1 MOL         0.0000
     33 O5         -8.9713   -8.7013   -2.4769 O.co2     1 MOL         0.0000
     34 O6         -3.5212   -5.2711   -3.1650 O.3       1 MOL         0.0000
     35 O7         -5.2622   -5.9750   -0.9791 O.3       1 MOL         0.0000
     36 H1          2.7566    2.5131   -0.7651 H         1 MOL         0.0000
     37 H2          3.1684    0.3057   -1.8097 H         1 MOL         0.0000
     38 H3          0.6345    2.9522    0.4544 H         1 MOL         0.0000
     39 H4          1.4725   -1.4974   -1.6578 H         1 MOL         0.0000
     40 H5         -2.6263   -3.4643    1.6764 H         1 MOL         0.0000
     41 H6         -4.5858   -4.9057    1.2784 H         1 MOL         0.0000
     42 H7         -1.4342    1.5384    1.7158 H         1 MOL         0.0000
     43 H8         -2.1761    1.4849    0.0830 H         1 MOL         0.0000
     44 H9         -4.8620   -6.3075   -4.3104 H         1 MOL         0.0000
     45 H10        -5.5345   -4.9224   -3.4284 H         1 MOL         0.0000
     46 H11        -1.7182   -1.0792   -1.1687 H         1 MOL         0.0000
     47 H12        -2.8517   -0.6815    0.9103 H         1 MOL         0.0000
     48 H13        -4.4789   -7.5105   -2.1040 H         1 MOL         0.0000
     49 H14        -0.3985   -2.8401    0.9281 H         1 MOL         0.0000
     50 H15         0.0751   -2.9509   -0.7551 H         1 MOL         0.0000
     51 H16        -0.4508   -0.9078    4.7004 H         1 MOL         0.0000
     52 H17        -1.0311   -2.5378    4.3105 H         1 MOL         0.0000
     53 H18        -6.1773   -9.1093   -1.3532 H         1 MOL         0.0000
     54 H19        -6.8961   -7.8437   -0.3563 H         1 MOL         0.0000
     55 H20        -7.3264   -6.5184   -2.4844 H         1 MOL         0.0000
     56 H21        -6.5756   -7.8248   -3.3952 H         1 MOL         0.0000
     57 H22        -3.0963   -2.1328    5.6564 H         1 MOL         0.0000
     58 H23        -2.5590   -0.4964    6.0164 H         1 MOL         0.0000
     59 H24        -1.0643   -3.0607    6.8464 H         1 MOL         0.0000
     60 H25        -0.5648   -1.3905    7.2473 H         1 MOL         0.0000
     61 H26        -0.3415   -1.2919    2.2694 H         1 MOL         0.0000
     62 H27        -2.0813   -2.8662    8.7939 H         1 MOL         0.0000
     63 H28        -3.2805   -2.1196    7.9239 H         1 MOL         0.0000
     64 H29        -2.1725   -1.2100    8.7593 H         1 MOL         0.0000
@<TRIPOS>BOND
     1    1    2 ar
     2    1    3 ar
     3    2    4 ar
     4    3    8 ar
     5    4    9 ar
     6    5    6 ar
     7    5   10 ar
     8    6   11 ar
     9    7   10 ar
    10    7   12 ar
    11    7   13 1
    12    8    9 ar
    13    8   16 1
    14    9   18 1
    15   10   21 1
    16   11   12 ar
    17   11   35 1
    18   12   34 1
    19   13   29 1
    20   13   31 2
    21   14   22 1
    22   14   27 am
    23   14   32 2
    24   15   23 1
    25   15   30 1
    26   15   33 2
    27   16   19 1
    28   17   20 1
    29   17   34 1
    30   18   19 1
    31   18   21 1
    32   19   27 1
    33   20   24 1
    34   20   35 1
    35   22   25 1
    36   23   24 1
    37   25   26 1
    38   26   28 1
    39    1   36 1
    40    2   37 1
    41    3   38 1
    42    4   39 1
    43    5   40 1
    44    6   41 1
    45   16   42 1
    46   16   43 1
    47   17   44 1
    48   17   45 1
    49   18   46 1
    50   19   47 1
    51   20   48 1
    52   21   49 1
    53   21   50 1
    54   22   51 1
    55   22   52 1
    56   23   53 1
    57   23   54 1
    58   24   55 1
    59   24   56 1
    60   25   57 1
    61   25   58 1
    62   26   59 1
    63   26   60 1
    64   27   61 1
    65   28   62 1
    66   28   63 1
    67   28   64 1
