AVX38789_3
  -OEChem-04011315023D

 64 67  0     1  0  0  0  0  0999 V2000
    0.1972   -6.1676   -2.6620 C   0  0  0  0  0  0  0  0  0  0  0  0
   -0.9536   -5.7030   -2.0253 C   0  0  0  0  0  0  0  0  0  0  0  0
    2.1230    1.3010   -6.1113 C   0  0  0  0  0  0  0  0  0  0  0  0
    0.7277   -5.4647   -3.7438 C   0  0  0  0  0  0  0  0  0  0  0  0
   -1.5741   -4.5358   -2.4704 C   0  0  0  0  0  0  0  0  0  0  0  0
    1.0985   -0.7214   -1.3057 C   0  0  0  0  0  0  0  0  0  0  0  0
    2.1321    0.0505   -0.7747 C   0  0  0  0  0  0  0  0  0  0  0  0
    1.9983    0.0921   -6.8368 C   0  0  0  0  0  0  0  0  0  0  0  0
    2.7140    0.9690   -4.9145 C   0  0  0  0  0  0  0  0  0  0  0  0
    0.1073   -4.2975   -4.1890 C   0  0  0  0  0  0  0  0  0  0  0  0
   -0.3367    1.2237   -1.3569 C   0  0  0  0  0  0  0  0  0  0  0  0
   -1.0436   -3.8330   -3.5523 C   0  0  0  0  0  0  0  0  0  0  0  0
   -0.1324   -0.1345   -1.6013 C   0  0  0  0  0  0  0  0  0  0  0  0
    1.9328    1.4118   -0.5432 C   0  0  0  0  0  0  0  0  0  0  0  0
    0.6922    1.9935   -0.8137 C   0  0  0  0  0  0  0  0  0  0  0  0
    2.5222   -0.8924   -6.0316 C   0  0  0  0  0  0  0  0  0  0  0  0
    0.6818   -3.5835   -5.3212 C   0  0  0  0  0  0  0  0  0  0  0  0
   -1.6444    1.8393   -1.6627 C   0  0  0  0  0  0  0  0  0  0  0  0
    5.7161    4.0885   -1.1522 C   0  0  0  0  0  0  0  0  0  0  0  0
    1.4018    3.9155    0.2793 C   0  0  0  0  0  0  0  0  0  0  0  0
    2.8049    3.5368   -0.1757 C   0  0  1  0  0  0  0  0  0  0  0  0
   -1.3292   -0.1769   -4.5299 C   0  0  0  0  0  0  0  0  0  0  0  0
   -1.7316   -2.5809   -4.0106 C   0  0  0  0  0  0  0  0  0  0  0  0
   -1.2157   -0.9880   -2.1764 C   0  0  0  0  0  0  0  0  0  0  0  0
    2.6919   -2.3746   -6.2004 C   0  0  0  0  0  0  0  0  0  0  0  0
    5.2662    3.7888    0.2825 C   0  0  0  0  0  0  0  0  0  0  0  0
    3.8664    4.2271    0.6682 C   0  0  0  0  0  0  0  0  0  0  0  0
    1.9932   -3.1189   -5.1774 N   0  0  0  0  0  0  0  0  0  0  0  0
   -1.0008   -1.3248   -3.6097 N   0  3  2  0  0  0  0  0  0  0  0  0
   -1.8304    2.3371   -2.8330 O   0  5  0  0  0  0  0  0  0  0  0  0
    6.5437    3.2843   -1.6619 O   0  5  0  0  0  0  0  0  0  0  0  0
    0.0107   -3.3902   -6.3491 O   0  0  0  0  0  0  0  0  0  0  0  0
   -2.5459    1.8537   -0.7467 O   0  0  0  0  0  0  0  0  0  0  0  0
    5.1812    5.1166   -1.6590 O   0  0  0  0  0  0  0  0  0  0  0  0
    2.9607   -0.3661   -4.8580 O   0  0  0  0  0  0  0  0  0  0  0  0
    0.4248    3.3162   -0.5780 O   0  0  0  0  0  0  0  0  0  0  0  0
    2.9916    2.1213   -0.0406 O   0  0  0  0  0  0  0  0  0  0  0  0
    0.6809   -7.0764   -2.3155 H   0  0  0  0  0  0  0  0  0  0  0  0
   -1.3664   -6.2509   -1.1831 H   0  0  0  0  0  0  0  0  0  0  0  0
    1.8197    2.2904   -6.4217 H   0  0  0  0  0  0  0  0  0  0  0  0
    1.6244   -5.8377   -4.2321 H   0  0  0  0  0  0  0  0  0  0  0  0
   -2.4700   -4.1822   -1.9670 H   0  0  0  0  0  0  0  0  0  0  0  0
    1.2639   -1.7798   -1.4899 H   0  0  0  0  0  0  0  0  0  0  0  0
    3.0906   -0.4124   -0.5569 H   0  0  0  0  0  0  0  0  0  0  0  0
    1.5780   -0.0415   -7.8234 H   0  0  0  0  0  0  0  0  0  0  0  0
    3.0096    1.5363   -4.0442 H   0  0  0  0  0  0  0  0  0  0  0  0
    1.2040    3.5916    1.3091 H   0  0  0  0  0  0  0  0  0  0  0  0
    1.2586    5.0002    0.2308 H   0  0  0  0  0  0  0  0  0  0  0  0
    2.9543    3.7995   -1.2319 H   0  0  0  0  0  0  0  0  0  0  0  0
   -2.3902    0.0512   -4.4137 H   0  0  0  0  0  0  0  0  0  0  0  0
   -0.7103    0.6735   -4.2374 H   0  0  0  0  0  0  0  0  0  0  0  0
   -1.1052   -0.4925   -5.5508 H   0  0  0  0  0  0  0  0  0  0  0  0
   -1.8237   -2.5565   -5.1017 H   0  0  0  0  0  0  0  0  0  0  0  0
   -2.7397   -2.5065   -3.5888 H   0  0  0  0  0  0  0  0  0  0  0  0
   -1.3007   -1.9434   -1.6429 H   0  0  0  0  0  0  0  0  0  0  0  0
   -2.1924   -0.4909   -2.1179 H   0  0  0  0  0  0  0  0  0  0  0  0
    2.3090   -2.6987   -7.1742 H   0  0  0  0  0  0  0  0  0  0  0  0
    3.7492   -2.6566   -6.1564 H   0  0  0  0  0  0  0  0  0  0  0  0
    5.9724    4.3125    0.9391 H   0  0  0  0  0  0  0  0  0  0  0  0
    5.3901    2.7147    0.4697 H   0  0  0  0  0  0  0  0  0  0  0  0
    3.7361    5.3032    0.5666 H   0  0  0  0  0  0  0  0  0  0  0  0
    3.6714    3.9637    1.7075 H   0  0  0  0  0  0  0  0  0  0  0  0
    2.4729   -3.2496   -4.2928 H   0  0  0  0  0  0  0  0  0  0  0  0
    0.0056   -1.5198   -3.7389 H   0  0  0  0  0  0  0  0  0  0  0  0
  1  2  1  0  0  0  0
  1  4  2  0  0  0  0
  2  5  2  0  0  0  0
  3  8  1  0  0  0  0
  3  9  2  0  0  0  0
  4 10  1  0  0  0  0
  5 12  1  0  0  0  0
  6  7  2  0  0  0  0
  6 13  1  0  0  0  0
  7 14  1  0  0  0  0
  8 16  2  0  0  0  0
  9 35  1  0  0  0  0
 10 12  2  0  0  0  0
 10 17  1  0  0  0  0
 11 13  2  0  0  0  0
 11 15  1  0  0  0  0
 11 18  1  0  0  0  0
 12 23  1  0  0  0  0
 13 24  1  0  0  0  0
 14 15  2  0  0  0  0
 14 37  1  0  0  0  0
 15 36  1  0  0  0  0
 16 25  1  0  0  0  0
 16 35  1  0  0  0  0
 17 28  1  0  0  0  0
 17 32  2  0  0  0  0
 18 30  1  0  0  0  0
 18 33  2  0  0  0  0
 19 26  1  0  0  0  0
 19 31  1  0  0  0  0
 19 34  2  0  0  0  0
 20 21  1  0  0  0  0
 20 36  1  0  0  0  0
 21 27  1  0  0  0  0
 21 37  1  0  0  0  0
 22 29  1  0  0  0  0
 23 29  1  0  0  0  0
 24 29  1  0  0  0  0
 25 28  1  0  0  0  0
 26 27  1  0  0  0  0
  1 38  1  0  0  0  0
  2 39  1  0  0  0  0
  3 40  1  0  0  0  0
  4 41  1  0  0  0  0
  5 42  1  0  0  0  0
  6 43  1  0  0  0  0
  7 44  1  0  0  0  0
  8 45  1  0  0  0  0
  9 46  1  0  0  0  0
 20 47  1  0  0  0  0
 20 48  1  0  0  0  0
 21 49  1  0  0  0  0
 22 50  1  0  0  0  0
 22 51  1  0  0  0  0
 22 52  1  0  0  0  0
 23 53  1  0  0  0  0
 23 54  1  0  0  0  0
 24 55  1  0  0  0  0
 24 56  1  0  0  0  0
 25 57  1  0  0  0  0
 25 58  1  0  0  0  0
 26 59  1  0  0  0  0
 26 60  1  0  0  0  0
 27 61  1  0  0  0  0
 27 62  1  0  0  0  0
 28 63  1  0  0  0  0
 29 64  1  0  0  0  0
M  CHG  3  29   1  30  -1  31  -1
M  END
$$$$
