AVX38753_2
  -OEChem-04011314593D

 71 74  0     1  0  0  0  0  0999 V2000
    3.8898    0.5714   -2.0587 C   0  0  0  0  0  0  0  0  0  0  0  0
   -2.3498   -5.9292   -1.9818 C   0  0  0  0  0  0  0  0  0  0  0  0
    4.2168   -0.6964   -2.5396 C   0  0  0  0  0  0  0  0  0  0  0  0
    3.0700    0.7019   -0.9377 C   0  0  0  0  0  0  0  0  0  0  0  0
   -2.9641   -5.1720   -2.9793 C   0  0  0  0  0  0  0  0  0  0  0  0
   -1.0551   -5.6172   -1.5670 C   0  0  0  0  0  0  0  0  0  0  0  0
    3.7241   -1.8337   -1.8997 C   0  0  0  0  0  0  0  0  0  0  0  0
    2.5772   -0.4353   -0.2977 C   0  0  0  0  0  0  0  0  0  0  0  0
   -2.2836   -4.1029   -3.5621 C   0  0  0  0  0  0  0  0  0  0  0  0
   -3.6325   -0.4324   -2.3642 C   0  0  0  0  0  0  0  0  0  0  0  0
   -4.7179    0.4210   -2.1649 C   0  0  0  0  0  0  0  0  0  0  0  0
   -0.3746   -4.5481   -2.1497 C   0  0  0  0  0  0  0  0  0  0  0  0
   -2.1580    1.1970   -1.3557 C   0  0  0  0  0  0  0  0  0  0  0  0
    2.9042   -1.7031   -0.7787 C   0  0  0  0  0  0  0  0  0  0  0  0
   -0.9888   -3.7909   -3.1473 C   0  0  0  0  0  0  0  0  0  0  0  0
   -2.3552   -0.0471   -1.9553 C   0  0  0  0  0  0  0  0  0  0  0  0
   -4.5235    1.6594   -1.5526 C   0  0  0  0  0  0  0  0  0  0  0  0
   -3.2409    2.0563   -1.1680 C   0  0  0  0  0  0  0  0  0  0  0  0
    0.4028   -0.3818   -6.7536 C   0  0  0  0  0  0  0  0  0  0  0  0
   -0.5664   -0.2775   -5.8379 C   0  0  0  0  0  0  0  0  0  0  0  0
    0.9767   -4.2446   -1.6983 C   0  0  0  0  0  0  0  0  0  0  0  0
   -0.8027    1.6050   -0.9326 C   0  0  0  0  0  0  0  0  0  0  0  0
   -8.0883    3.1335    1.0872 C   0  0  0  0  0  0  0  0  0  0  0  0
   -4.0677    4.1878   -0.7610 C   0  0  0  0  0  0  0  0  0  0  0  0
   -5.3883    3.5048   -0.4310 C   0  0  1  0  0  0  0  0  0  0  0  0
    2.3733   -2.9268   -0.0896 C   0  0  0  0  0  0  0  0  0  0  0  0
   -0.2799   -2.6362   -3.7915 C   0  0  0  0  0  0  0  0  0  0  0  0
   -1.2157   -0.9880   -2.1764 C   0  0  0  0  0  0  0  0  0  0  0  0
   -0.3192   -0.2135   -4.3666 C   0  0  0  0  0  0  0  0  0  0  0  0
   -7.8840    3.7900   -0.2831 C   0  0  0  0  0  0  0  0  0  0  0  0
   -6.5539    4.4786   -0.5224 C   0  0  0  0  0  0  0  0  0  0  0  0
    1.1017   -3.3454   -0.6343 N   0  0  0  0  0  0  0  0  0  0  0  0
   -1.0008   -1.3248   -3.6097 N   0  3  1  0  0  0  0  0  0  0  0  0
   -0.4173    1.3140    0.2585 O   0  5  0  0  0  0  0  0  0  0  0  0
   -8.8432    2.1233    1.1201 O   0  5  0  0  0  0  0  0  0  0  0  0
    1.9582   -4.7572   -2.2621 O   0  0  0  0  0  0  0  0  0  0  0  0
   -0.0609    2.2356   -1.7717 O   0  0  0  0  0  0  0  0  0  0  0  0
   -7.4521    3.6896    2.0284 O   0  0  0  0  0  0  0  0  0  0  0  0
   -2.9810    3.2719   -0.5921 O   0  0  0  0  0  0  0  0  0  0  0  0
   -5.6309    2.4441   -1.3652 O   0  0  0  0  0  0  0  0  0  0  0  0
    4.2747    1.4567   -2.5563 H   0  0  0  0  0  0  0  0  0  0  0  0
   -2.8794   -6.7618   -1.5275 H   0  0  0  0  0  0  0  0  0  0  0  0
    4.8560   -0.7983   -3.4118 H   0  0  0  0  0  0  0  0  0  0  0  0
    2.8160    1.6888   -0.5623 H   0  0  0  0  0  0  0  0  0  0  0  0
   -3.9721   -5.4156   -3.3021 H   0  0  0  0  0  0  0  0  0  0  0  0
   -0.5871   -6.2156   -0.7895 H   0  0  0  0  0  0  0  0  0  0  0  0
    3.9840   -2.8174   -2.2816 H   0  0  0  0  0  0  0  0  0  0  0  0
    1.9390   -0.3239    0.5749 H   0  0  0  0  0  0  0  0  0  0  0  0
   -2.7714   -3.5191   -4.3382 H   0  0  0  0  0  0  0  0  0  0  0  0
   -3.7933   -1.3985   -2.8354 H   0  0  0  0  0  0  0  0  0  0  0  0
   -5.7108    0.1088   -2.4772 H   0  0  0  0  0  0  0  0  0  0  0  0
    0.1592   -0.4192   -7.8098 H   0  0  0  0  0  0  0  0  0  0  0  0
    1.4483   -0.4305   -6.4703 H   0  0  0  0  0  0  0  0  0  0  0  0
   -1.5984   -0.2270   -6.1753 H   0  0  0  0  0  0  0  0  0  0  0  0
   -4.0473    4.5627   -1.7923 H   0  0  0  0  0  0  0  0  0  0  0  0
   -3.8906    5.0336   -0.0883 H   0  0  0  0  0  0  0  0  0  0  0  0
   -5.3583    3.0691    0.5770 H   0  0  0  0  0  0  0  0  0  0  0  0
    3.0749   -3.7619   -0.1908 H   0  0  0  0  0  0  0  0  0  0  0  0
    2.2353   -2.7458    0.9816 H   0  0  0  0  0  0  0  0  0  0  0  0
    0.7235   -2.5042   -3.3728 H   0  0  0  0  0  0  0  0  0  0  0  0
   -0.1736   -2.7897   -4.8708 H   0  0  0  0  0  0  0  0  0  0  0  0
   -0.2701   -0.5670   -1.8117 H   0  0  0  0  0  0  0  0  0  0  0  0
   -1.3743   -1.9405   -1.6545 H   0  0  0  0  0  0  0  0  0  0  0  0
   -0.7114    0.7230   -3.9583 H   0  0  0  0  0  0  0  0  0  0  0  0
    0.7448   -0.2832   -4.1192 H   0  0  0  0  0  0  0  0  0  0  0  0
   -8.6731    4.5463   -0.3795 H   0  0  0  0  0  0  0  0  0  0  0  0
   -8.0641    3.0373   -1.0609 H   0  0  0  0  0  0  0  0  0  0  0  0
   -6.3811    5.2848    0.1886 H   0  0  0  0  0  0  0  0  0  0  0  0
   -6.5362    4.9073   -1.5241 H   0  0  0  0  0  0  0  0  0  0  0  0
    0.2695   -2.9080   -0.2523 H   0  0  0  0  0  0  0  0  0  0  0  0
   -1.9300   -1.4433   -4.0454 H   0  0  0  0  0  0  0  0  0  0  0  0
  1  3  1  0  0  0  0
  1  4  2  0  0  0  0
  2  5  1  0  0  0  0
  2  6  2  0  0  0  0
  3  7  2  0  0  0  0
  4  8  1  0  0  0  0
  5  9  2  0  0  0  0
  6 12  1  0  0  0  0
  7 14  1  0  0  0  0
  8 14  2  0  0  0  0
  9 15  1  0  0  0  0
 10 11  2  0  0  0  0
 10 16  1  0  0  0  0
 11 17  1  0  0  0  0
 12 15  2  0  0  0  0
 12 21  1  0  0  0  0
 13 16  2  0  0  0  0
 13 18  1  0  0  0  0
 13 22  1  0  0  0  0
 14 26  1  0  0  0  0
 15 27  1  0  0  0  0
 16 28  1  0  0  0  0
 17 18  2  0  0  0  0
 17 40  1  0  0  0  0
 18 39  1  0  0  0  0
 19 20  2  0  0  0  0
 20 29  1  0  0  0  0
 21 32  1  0  0  0  0
 21 36  2  0  0  0  0
 22 34  1  0  0  0  0
 22 37  2  0  0  0  0
 23 30  1  0  0  0  0
 23 35  1  0  0  0  0
 23 38  2  0  0  0  0
 24 25  1  0  0  0  0
 24 39  1  0  0  0  0
 25 31  1  0  0  0  0
 25 40  1  0  0  0  0
 26 32  1  0  0  0  0
 27 33  1  0  0  0  0
 28 33  1  0  0  0  0
 29 33  1  0  0  0  0
 30 31  1  0  0  0  0
  1 41  1  0  0  0  0
  2 42  1  0  0  0  0
  3 43  1  0  0  0  0
  4 44  1  0  0  0  0
  5 45  1  0  0  0  0
  6 46  1  0  0  0  0
  7 47  1  0  0  0  0
  8 48  1  0  0  0  0
  9 49  1  0  0  0  0
 10 50  1  0  0  0  0
 11 51  1  0  0  0  0
 19 52  1  0  0  0  0
 19 53  1  0  0  0  0
 20 54  1  0  0  0  0
 24 55  1  0  0  0  0
 24 56  1  0  0  0  0
 25 57  1  0  0  0  0
 26 58  1  0  0  0  0
 26 59  1  0  0  0  0
 27 60  1  0  0  0  0
 27 61  1  0  0  0  0
 28 62  1  0  0  0  0
 28 63  1  0  0  0  0
 29 64  1  0  0  0  0
 29 65  1  0  0  0  0
 30 66  1  0  0  0  0
 30 67  1  0  0  0  0
 31 68  1  0  0  0  0
 31 69  1  0  0  0  0
 32 70  1  0  0  0  0
 33 71  1  0  0  0  0
M  CHG  3  33   1  34  -1  35  -1
M  END
$$$$
