@<TRIPOS>MOLECULE
AVX38788_1
   67    70     0     0     0
SMALL
NO_CHARGES

@<TRIPOS>ATOM
      1 C1         -0.5317   -3.6320   -1.6425 C.ar      1 MOL         0.0000
      2 C2         -1.0776   -3.0700   -0.4885 C.ar      1 MOL         0.0000
      3 C3         -1.2419   -4.6029   -2.3487 C.ar      1 MOL         0.0000
      4 C4         -2.3337   -3.4790   -0.0406 C.ar      1 MOL         0.0000
      5 C5         -4.7905   -8.9838    2.0789 C.ar      1 MOL         0.0000
      6 C6         -4.6726   -9.8255    3.1852 C.ar      1 MOL         0.0000
      7 C7         -2.4980   -5.0119   -1.9008 C.ar      1 MOL         0.0000
      8 C8         -2.6600   -7.9731    2.6127 C.ar      1 MOL         0.0000
      9 C9         -3.0439   -4.4499   -0.7467 C.ar      1 MOL         0.0000
     10 C10        -3.7883   -8.0551    1.7963 C.ar      1 MOL         0.0000
     11 C11        -3.5511   -9.7344    4.0100 C.ar      1 MOL         0.0000
     12 C12        -2.5350   -8.8239    3.7112 C.ar      1 MOL         0.0000
     13 C13        -3.2177   -6.0279   -2.6567 C.2       1 MOL         0.0000
     14 C14        -1.5966   -6.9949    2.3048 C.2       1 MOL         0.0000
     15 C15        -3.5214  -12.6909    8.8812 C.2       1 MOL         0.0000
     16 C16        -4.3722  -11.2423   -2.0702 C.3       1 MOL         0.0000
     17 C17        -3.2344  -10.2383   -1.7912 C.3       1 MOL         0.0000
     18 C18        -4.6576  -10.4435   -3.3591 C.3       1 MOL         0.0000
     19 C19        -1.2107   -9.8353    5.3279 C.3       1 MOL         0.0000
     20 C20        -4.0170   -9.2284   -2.6561 C.3       1 MOL         0.0000
     21 C21        -2.5122  -10.1653    6.0467 C.3       1 MOL         0.0000
     22 C22        -5.5787   -5.6917    1.7903 C.3       1 MOL         0.0000
     23 C23        -4.3924   -4.8716   -0.2421 C.3       1 MOL         0.0000
     24 C24        -3.9501   -7.1622    0.6091 C.3       1 MOL         0.0000
     25 C25        -3.5915  -11.5847    7.8218 C.3       1 MOL         0.0000
     26 C26        -3.1704   -8.3730   -3.5360 C.3       1 MOL         0.0000
     27 C27        -2.3247  -11.3064    7.0358 C.3       1 MOL         0.0000
     28 N1         -2.5953   -7.2726   -2.7964 N.am      1 MOL         0.0000
     29 N2         -4.3168   -5.7659    0.9691 N.4       1 MOL         0.0000
     30 O1         -0.6335   -7.3566    1.5345 O.co2     1 MOL         0.0000
     31 O2         -4.5799  -12.9169    9.5293 O.co2     1 MOL         0.0000
     32 O3         -4.3231   -5.7702   -3.1625 O.2       1 MOL         0.0000
     33 O4         -1.6752   -5.8197    2.8193 O.co2     1 MOL         0.0000
     34 O5         -2.3937  -13.2575    8.9650 O.co2     1 MOL         0.0000
     35 O6         -1.3952   -8.7103    4.4628 O.3       1 MOL         0.0000
     36 O7         -3.5021  -10.5729    5.0922 O.3       1 MOL         0.0000
     37 H1          0.4464   -3.3137   -1.9919 H         1 MOL         0.0000
     38 H2         -0.5240   -2.3143    0.0611 H         1 MOL         0.0000
     39 H3         -0.8051   -5.0339   -3.2459 H         1 MOL         0.0000
     40 H4         -2.7501   -3.0345    0.8595 H         1 MOL         0.0000
     41 H5         -5.6707   -9.0561    1.4453 H         1 MOL         0.0000
     42 H6         -5.4632  -10.5380    3.4041 H         1 MOL         0.0000
     43 H7         -4.0294  -12.2682   -2.2477 H         1 MOL         0.0000
     44 H8         -5.1801  -11.2607   -1.3344 H         1 MOL         0.0000
     45 H9         -3.1541   -9.9468   -0.7370 H         1 MOL         0.0000
     46 H10        -2.2446  -10.5300   -2.1524 H         1 MOL         0.0000
     47 H11        -4.1599  -10.8060   -4.2623 H         1 MOL         0.0000
     48 H12        -5.7261  -10.3174   -3.5703 H         1 MOL         0.0000
     49 H13        -0.4274   -9.5709    6.0460 H         1 MOL         0.0000
     50 H14        -0.8496  -10.6794    4.7264 H         1 MOL         0.0000
     51 H15        -4.7281   -8.6160   -2.0911 H         1 MOL         0.0000
     52 H16        -2.8964   -9.2839    6.5783 H         1 MOL         0.0000
     53 H17        -6.3955   -6.0876    1.1839 H         1 MOL         0.0000
     54 H18        -5.4289   -6.2940    2.6883 H         1 MOL         0.0000
     55 H19        -5.7509   -4.6441    2.0445 H         1 MOL         0.0000
     56 H20        -4.9968   -4.0043    0.0445 H         1 MOL         0.0000
     57 H21        -4.9459   -5.4255   -1.0081 H         1 MOL         0.0000
     58 H22        -3.0233   -7.0986    0.0247 H         1 MOL         0.0000
     59 H23        -4.7379   -7.5263   -0.0627 H         1 MOL         0.0000
     60 H24        -3.8597  -10.6656    8.3580 H         1 MOL         0.0000
     61 H25        -4.4186  -11.8096    7.1368 H         1 MOL         0.0000
     62 H26        -3.7673   -7.9519   -4.3507 H         1 MOL         0.0000
     63 H27        -2.3476   -8.9524   -3.9650 H         1 MOL         0.0000
     64 H28        -1.9884  -12.1829    6.4848 H         1 MOL         0.0000
     65 H29        -1.5260  -11.0127    7.7164 H         1 MOL         0.0000
     66 H30        -1.6642   -7.4085   -2.4163 H         1 MOL         0.0000
     67 H31        -3.5623   -5.3865    1.5643 H         1 MOL         0.0000
@<TRIPOS>BOND
     1    1    2 ar
     2    1    3 ar
     3    2    4 ar
     4    3    7 ar
     5    4    9 ar
     6    5    6 ar
     7    5   10 ar
     8    6   11 ar
     9    7    9 ar
    10    7   13 1
    11    8   10 ar
    12    8   12 ar
    13    8   14 1
    14    9   23 1
    15   10   24 1
    16   11   12 ar
    17   11   36 1
    18   12   35 1
    19   13   28 am
    20   13   32 2
    21   14   30 1
    22   14   33 2
    23   15   25 1
    24   15   31 1
    25   15   34 2
    26   16   17 1
    27   16   18 1
    28   17   20 1
    29   18   20 1
    30   19   21 1
    31   19   35 1
    32   20   26 1
    33   21   27 1
    34   21   36 1
    35   22   29 1
    36   23   29 1
    37   24   29 1
    38   25   27 1
    39   26   28 1
    40    1   37 1
    41    2   38 1
    42    3   39 1
    43    4   40 1
    44    5   41 1
    45    6   42 1
    46   16   43 1
    47   16   44 1
    48   17   45 1
    49   17   46 1
    50   18   47 1
    51   18   48 1
    52   19   49 1
    53   19   50 1
    54   20   51 1
    55   21   52 1
    56   22   53 1
    57   22   54 1
    58   22   55 1
    59   23   56 1
    60   23   57 1
    61   24   58 1
    62   24   59 1
    63   25   60 1
    64   25   61 1
    65   26   62 1
    66   26   63 1
    67   27   64 1
    68   27   65 1
    69   28   66 1
    70   29   67 1
