AVX38784_6
  -OEChem-04011315003D

 66 68  0     1  0  0  0  0  0999 V2000
    0.8041   -1.4712   -8.3538 C   0  0  0  0  0  0  0  0  0  0  0  0
    0.0708   -0.3296   -8.0304 C   0  0  0  0  0  0  0  0  0  0  0  0
    1.2986   -2.2927   -7.3407 C   0  0  0  0  0  0  0  0  0  0  0  0
   -0.1679   -0.0093   -6.6939 C   0  0  0  0  0  0  0  0  0  0  0  0
    0.8019   -0.6244   -0.7686 C   0  0  0  0  0  0  0  0  0  0  0  0
    1.8108   -1.0844    0.0779 C   0  0  0  0  0  0  0  0  0  0  0  0
    1.0600   -1.9724   -6.0042 C   0  0  0  0  0  0  0  0  0  0  0  0
   -0.0766   -2.8695   -0.9522 C   0  0  0  0  0  0  0  0  0  0  0  0
    0.3267   -0.8308   -5.6808 C   0  0  0  0  0  0  0  0  0  0  0  0
   -0.1436   -1.5148   -1.2787 C   0  0  0  0  0  0  0  0  0  0  0  0
    1.8698   -2.4366    0.4160 C   0  0  0  0  0  0  0  0  0  0  0  0
    0.9398   -3.3323   -0.1161 C   0  0  0  0  0  0  0  0  0  0  0  0
    1.5885   -2.8471   -4.9662 C   0  0  0  0  0  0  0  0  0  0  0  0
   -1.0741   -3.8105   -1.5017 C   0  0  0  0  0  0  0  0  0  0  0  0
    3.4548   -3.3234    4.7231 C   0  0  0  0  0  0  0  0  0  0  0  0
    2.2139   -5.0857    0.7172 C   0  0  0  0  0  0  0  0  0  0  0  0
    2.6327   -4.1252    1.8223 C   0  0  1  0  0  0  0  0  0  0  0  0
    5.0247   -5.3712   -3.0627 C   0  0  0  0  0  0  0  0  0  0  0  0
    4.4337   -2.4444   -2.6314 C   0  0  0  0  0  0  0  0  0  0  0  0
   -2.2816   -1.3075   -4.4044 C   0  0  0  0  0  0  0  0  0  0  0  0
    0.0557   -0.4623   -4.2519 C   0  0  0  0  0  0  0  0  0  0  0  0
   -1.2157   -0.9880   -2.1764 C   0  0  0  0  0  0  0  0  0  0  0  0
    4.3923   -3.5886    3.5391 C   0  0  0  0  0  0  0  0  0  0  0  0
    3.9172   -4.5833    2.4974 C   0  0  0  0  0  0  0  0  0  0  0  0
    4.3532   -4.4855   -4.1045 C   0  0  0  0  0  0  0  0  0  0  0  0
    3.5402   -3.3457   -3.4772 C   0  0  2  0  0  0  0  0  0  0  0  0
    2.8706   -2.5585   -4.4874 N   0  0  0  0  0  0  0  0  0  0  0  0
   -1.0008   -1.3248   -3.6097 N   0  3  1  0  0  0  0  0  0  0  0  0
   -2.1535   -4.0194   -0.8361 O   0  5  0  0  0  0  0  0  0  0  0  0
    3.5109   -2.1733    5.2384 O   0  5  0  0  0  0  0  0  0  0  0  0
    0.9207   -3.8114   -4.5561 O   0  0  0  0  0  0  0  0  0  0  0  0
   -0.8242   -4.3844   -2.6243 O   0  0  0  0  0  0  0  0  0  0  0  0
    2.7197   -4.3053    5.0321 O   0  0  0  0  0  0  0  0  0  0  0  0
    0.9646   -4.6756    0.1520 O   0  0  0  0  0  0  0  0  0  0  0  0
    2.8704   -2.8242    1.2679 O   0  0  0  0  0  0  0  0  0  0  0  0
    0.9901   -1.7211   -9.3944 H   0  0  0  0  0  0  0  0  0  0  0  0
   -0.3138    0.3098   -8.8197 H   0  0  0  0  0  0  0  0  0  0  0  0
    1.8696   -3.1789   -7.6057 H   0  0  0  0  0  0  0  0  0  0  0  0
   -0.7408    0.8822   -6.4528 H   0  0  0  0  0  0  0  0  0  0  0  0
    0.7584    0.4318   -1.0216 H   0  0  0  0  0  0  0  0  0  0  0  0
    2.5369   -0.3824    0.4787 H   0  0  0  0  0  0  0  0  0  0  0  0
    2.9587   -5.1337   -0.0874 H   0  0  0  0  0  0  0  0  0  0  0  0
    2.0772   -6.0971    1.1145 H   0  0  0  0  0  0  0  0  0  0  0  0
    1.8397   -4.0329    2.5770 H   0  0  0  0  0  0  0  0  0  0  0  0
    4.2911   -5.8187   -2.3852 H   0  0  0  0  0  0  0  0  0  0  0  0
    5.5666   -6.1853   -3.5544 H   0  0  0  0  0  0  0  0  0  0  0  0
    5.7421   -4.7991   -2.4658 H   0  0  0  0  0  0  0  0  0  0  0  0
    5.2332   -2.0052   -3.2367 H   0  0  0  0  0  0  0  0  0  0  0  0
    3.8596   -1.6287   -2.1775 H   0  0  0  0  0  0  0  0  0  0  0  0
    4.8987   -3.0116   -1.8175 H   0  0  0  0  0  0  0  0  0  0  0  0
   -2.6787   -0.2912   -4.3757 H   0  0  0  0  0  0  0  0  0  0  0  0
   -2.0446   -1.6077   -5.4268 H   0  0  0  0  0  0  0  0  0  0  0  0
   -2.9732   -2.0122   -3.9387 H   0  0  0  0  0  0  0  0  0  0  0  0
    0.9582   -0.5618   -3.6393 H   0  0  0  0  0  0  0  0  0  0  0  0
   -0.2910    0.5735   -4.1695 H   0  0  0  0  0  0  0  0  0  0  0  0
   -2.2000   -1.3922   -1.9073 H   0  0  0  0  0  0  0  0  0  0  0  0
   -1.2836    0.1060   -2.1218 H   0  0  0  0  0  0  0  0  0  0  0  0
    5.3245   -3.9759    3.9693 H   0  0  0  0  0  0  0  0  0  0  0  0
    4.6326   -2.6297    3.0630 H   0  0  0  0  0  0  0  0  0  0  0  0
    3.7439   -5.5686    2.9269 H   0  0  0  0  0  0  0  0  0  0  0  0
    4.6705   -4.6871    1.7169 H   0  0  0  0  0  0  0  0  0  0  0  0
    5.1316   -4.0654   -4.7530 H   0  0  0  0  0  0  0  0  0  0  0  0
    3.7084   -5.1079   -4.7373 H   0  0  0  0  0  0  0  0  0  0  0  0
    2.7550   -3.7649   -2.8373 H   0  0  0  0  0  0  0  0  0  0  0  0
    3.3967   -1.7964   -4.9025 H   0  0  0  0  0  0  0  0  0  0  0  0
   -0.6472   -2.2946   -3.6529 H   0  0  0  0  0  0  0  0  0  0  0  0
  1  2  1  0  0  0  0
  1  3  2  0  0  0  0
  2  4  2  0  0  0  0
  3  7  1  0  0  0  0
  4  9  1  0  0  0  0
  5  6  2  0  0  0  0
  5 10  1  0  0  0  0
  6 11  1  0  0  0  0
  7  9  2  0  0  0  0
  7 13  1  0  0  0  0
  8 10  2  0  0  0  0
  8 12  1  0  0  0  0
  8 14  1  0  0  0  0
  9 21  1  0  0  0  0
 10 22  1  0  0  0  0
 11 12  2  0  0  0  0
 11 35  1  0  0  0  0
 12 34  1  0  0  0  0
 13 27  1  0  0  0  0
 13 31  2  0  0  0  0
 14 29  1  0  0  0  0
 14 32  2  0  0  0  0
 15 23  1  0  0  0  0
 15 30  1  0  0  0  0
 15 33  2  0  0  0  0
 16 17  1  0  0  0  0
 16 34  1  0  0  0  0
 17 24  1  0  0  0  0
 17 35  1  0  0  0  0
 18 25  1  0  0  0  0
 19 26  1  0  0  0  0
 20 28  1  0  0  0  0
 21 28  1  0  0  0  0
 22 28  1  0  0  0  0
 23 24  1  0  0  0  0
 25 26  1  0  0  0  0
 26 27  1  0  0  0  0
  1 36  1  0  0  0  0
  2 37  1  0  0  0  0
  3 38  1  0  0  0  0
  4 39  1  0  0  0  0
  5 40  1  0  0  0  0
  6 41  1  0  0  0  0
 16 42  1  0  0  0  0
 16 43  1  0  0  0  0
 17 44  1  0  0  0  0
 18 45  1  0  0  0  0
 18 46  1  0  0  0  0
 18 47  1  0  0  0  0
 19 48  1  0  0  0  0
 19 49  1  0  0  0  0
 19 50  1  0  0  0  0
 20 51  1  0  0  0  0
 20 52  1  0  0  0  0
 20 53  1  0  0  0  0
 21 54  1  0  0  0  0
 21 55  1  0  0  0  0
 22 56  1  0  0  0  0
 22 57  1  0  0  0  0
 23 58  1  0  0  0  0
 23 59  1  0  0  0  0
 24 60  1  0  0  0  0
 24 61  1  0  0  0  0
 25 62  1  0  0  0  0
 25 63  1  0  0  0  0
 26 64  1  0  0  0  0
 27 65  1  0  0  0  0
 28 66  1  0  0  0  0
M  CHG  3  28   1  29  -1  30  -1
M  END
$$$$
