AVX38670_0
  -OEChem-04011314563D

 63 66  0     1  0  0  0  0  0999 V2000
    3.8350    0.9248    2.1364 C   0  0  0  0  0  0  0  0  0  0  0  0
    3.9377   -0.4156    1.7644 C   0  0  0  0  0  0  0  0  0  0  0  0
    2.7754    1.7001    1.6655 C   0  0  0  0  0  0  0  0  0  0  0  0
    2.9807   -0.9807    0.9213 C   0  0  0  0  0  0  0  0  0  0  0  0
    1.8185    1.1351    0.8225 C   0  0  0  0  0  0  0  0  0  0  0  0
   -0.8678   -4.3929   -1.8704 C   0  0  0  0  0  0  0  0  0  0  0  0
    0.1467   -0.6853   -5.8004 C   0  0  0  0  0  0  0  0  0  0  0  0
   -1.5397    0.4980   -4.5383 C   0  0  0  0  0  0  0  0  0  0  0  0
   -1.0660   -4.2145   -3.2416 C   0  0  0  0  0  0  0  0  0  0  0  0
   -0.8473   -1.2475   -6.6014 C   0  0  0  0  0  0  0  0  0  0  0  0
   -2.5336   -0.0641   -5.3393 C   0  0  0  0  0  0  0  0  0  0  0  0
    1.4555   -5.0180   -2.2439 C   0  0  0  0  0  0  0  0  0  0  0  0
   -0.1995    0.1874   -4.7688 C   0  0  0  0  0  0  0  0  0  0  0  0
    1.9211   -0.2053    0.4504 C   0  0  0  0  0  0  0  0  0  0  0  0
    0.3857   -4.7923   -1.3743 C   0  0  0  0  0  0  0  0  0  0  0  0
    0.0065   -4.4439   -4.0787 C   0  0  0  0  0  0  0  0  0  0  0  0
    1.2335   -4.8348   -3.5933 C   0  0  0  0  0  0  0  0  0  0  0  0
   -2.1874   -0.9369   -6.3709 C   0  0  0  0  0  0  0  0  0  0  0  0
    2.7774   -5.4356   -1.7499 C   0  0  0  0  0  0  0  0  0  0  0  0
    1.2680   -0.6743   -1.9311 C   0  0  0  0  0  0  0  0  0  0  0  0
   -0.2663   -2.6773    0.7165 C   0  0  0  0  0  0  0  0  0  0  0  0
    1.3637   -4.6792   -5.7475 C   0  0  0  0  0  0  0  0  0  0  0  0
   -1.2511   -4.7191    1.7841 C   0  0  0  0  0  0  0  0  0  0  0  0
   -2.7326   -2.3675   -8.1907 C   0  0  0  0  0  0  0  0  0  0  0  0
    0.8703    0.7931   -3.9069 C   0  0  0  0  0  0  0  0  0  0  0  0
    0.5491   -4.9707    0.1074 C   0  0  0  0  0  0  0  0  0  0  0  0
    0.8843   -0.8167   -0.4630 C   0  0  1  0  0  0  0  0  0  0  0  0
    0.7004    0.4505   -2.5132 N   0  0  0  0  0  0  0  0  0  0  0  0
    0.6837   -2.2227   -0.1939 N   0  0  0  0  0  0  0  0  0  0  0  0
   -0.3217   -4.0754    0.8651 N   0  0  0  0  0  0  0  0  0  0  0  0
    3.6405   -4.5290   -1.4465 O   0  5  0  0  0  0  0  0  0  0  0  0
    3.0281   -6.6939   -1.6375 O   0  0  0  0  0  0  0  0  0  0  0  0
    1.9682   -1.4958   -2.5197 O   0  0  0  0  0  0  0  0  0  0  0  0
   -0.9929   -1.9032    1.3469 O   0  0  0  0  0  0  0  0  0  0  0  0
    0.0022   -4.3210   -5.4340 O   0  0  0  0  0  0  0  0  0  0  0  0
    2.1508   -5.0059   -4.5839 O   0  0  0  0  0  0  0  0  0  0  0  0
   -3.1571   -1.4845   -7.1534 O   0  0  0  0  0  0  0  0  0  0  0  0
    4.5795    1.3642    2.7939 H   0  0  0  0  0  0  0  0  0  0  0  0
    4.7620   -1.0198    2.1318 H   0  0  0  0  0  0  0  0  0  0  0  0
    2.6946    2.7434    1.9559 H   0  0  0  0  0  0  0  0  0  0  0  0
    3.0689   -2.0258    0.6365 H   0  0  0  0  0  0  0  0  0  0  0  0
    0.9964    1.7469    0.4604 H   0  0  0  0  0  0  0  0  0  0  0  0
   -1.6954   -4.2188   -1.1867 H   0  0  0  0  0  0  0  0  0  0  0  0
    1.1882   -0.9330   -5.9870 H   0  0  0  0  0  0  0  0  0  0  0  0
   -1.8187    1.1770   -3.7366 H   0  0  0  0  0  0  0  0  0  0  0  0
   -2.0308   -3.9066   -3.6281 H   0  0  0  0  0  0  0  0  0  0  0  0
   -0.5712   -1.9265   -7.4037 H   0  0  0  0  0  0  0  0  0  0  0  0
   -3.5756    0.1821   -5.1549 H   0  0  0  0  0  0  0  0  0  0  0  0
    1.3528   -5.5460   -6.4183 H   0  0  0  0  0  0  0  0  0  0  0  0
    1.8372   -3.8380   -6.2666 H   0  0  0  0  0  0  0  0  0  0  0  0
   -2.1934   -4.9366    1.2745 H   0  0  0  0  0  0  0  0  0  0  0  0
   -1.4547   -4.0645    2.6359 H   0  0  0  0  0  0  0  0  0  0  0  0
   -0.8274   -5.6560    2.1555 H   0  0  0  0  0  0  0  0  0  0  0  0
   -3.6046   -2.7331   -8.7385 H   0  0  0  0  0  0  0  0  0  0  0  0
   -2.1848   -3.2066   -7.7547 H   0  0  0  0  0  0  0  0  0  0  0  0
   -2.0773   -1.8232   -8.8749 H   0  0  0  0  0  0  0  0  0  0  0  0
    1.8611    0.4470   -4.2209 H   0  0  0  0  0  0  0  0  0  0  0  0
    0.8671    1.8853   -3.9859 H   0  0  0  0  0  0  0  0  0  0  0  0
    0.3126   -5.9993    0.4009 H   0  0  0  0  0  0  0  0  0  0  0  0
    1.5813   -4.7737    0.4155 H   0  0  0  0  0  0  0  0  0  0  0  0
   -0.0932   -0.3455   -0.3039 H   0  0  0  0  0  0  0  0  0  0  0  0
    0.1334    1.0728   -1.9448 H   0  0  0  0  0  0  0  0  0  0  0  0
    1.2543   -2.9007   -0.6847 H   0  0  0  0  0  0  0  0  0  0  0  0
  1  2  2  0  0  0  0
  1  3  1  0  0  0  0
  2  4  1  0  0  0  0
  3  5  2  0  0  0  0
  4 14  2  0  0  0  0
  5 14  1  0  0  0  0
  6  9  2  0  0  0  0
  6 15  1  0  0  0  0
  7 10  1  0  0  0  0
  7 13  2  0  0  0  0
  8 11  2  0  0  0  0
  8 13  1  0  0  0  0
  9 16  1  0  0  0  0
 10 18  2  0  0  0  0
 11 18  1  0  0  0  0
 12 15  2  0  0  0  0
 12 17  1  0  0  0  0
 12 19  1  0  0  0  0
 13 25  1  0  0  0  0
 14 27  1  0  0  0  0
 15 26  1  0  0  0  0
 16 17  2  0  0  0  0
 16 35  1  0  0  0  0
 17 36  1  0  0  0  0
 18 37  1  0  0  0  0
 19 31  1  0  0  0  0
 19 32  2  0  0  0  0
 20 27  1  0  0  0  0
 20 28  1  0  0  0  0
 20 33  2  0  0  0  0
 21 29  1  0  0  0  0
 21 30  1  0  0  0  0
 21 34  2  0  0  0  0
 22 35  1  0  0  0  0
 22 36  1  0  0  0  0
 23 30  1  0  0  0  0
 24 37  1  0  0  0  0
 25 28  1  0  0  0  0
 26 30  1  0  0  0  0
 27 29  1  0  0  0  0
  1 38  1  0  0  0  0
  2 39  1  0  0  0  0
  3 40  1  0  0  0  0
  4 41  1  0  0  0  0
  5 42  1  0  0  0  0
  6 43  1  0  0  0  0
  7 44  1  0  0  0  0
  8 45  1  0  0  0  0
  9 46  1  0  0  0  0
 10 47  1  0  0  0  0
 11 48  1  0  0  0  0
 22 49  1  0  0  0  0
 22 50  1  0  0  0  0
 23 51  1  0  0  0  0
 23 52  1  0  0  0  0
 23 53  1  0  0  0  0
 24 54  1  0  0  0  0
 24 55  1  0  0  0  0
 24 56  1  0  0  0  0
 25 57  1  0  0  0  0
 25 58  1  0  0  0  0
 26 59  1  0  0  0  0
 26 60  1  0  0  0  0
 27 61  1  0  0  0  0
 28 62  1  0  0  0  0
 29 63  1  0  0  0  0
M  CHG  1  31  -1
M  END
$$$$
