@<TRIPOS>MOLECULE
AVX38748_7
   67    70     0     0     0
SMALL
NO_CHARGES

@<TRIPOS>ATOM
      1 C1          0.8227    2.4972    0.7613 C.ar      1 MOL         0.0000
      2 C2         -0.4669    2.5713    0.2131 C.ar      1 MOL         0.0000
      3 C3          1.5390    1.2996    0.7338 C.ar      1 MOL         0.0000
      4 C4         -1.0594    1.4490   -0.3711 C.ar      1 MOL         0.0000
      5 C5         -2.4783   -3.8465   -1.4808 C.ar      1 MOL         0.0000
      6 C6         -2.8423   -4.8524   -2.3762 C.ar      1 MOL         0.0000
      7 C7         -3.0748   -2.1672   -3.1149 C.ar      1 MOL         0.0000
      8 C8          0.9389    0.1885    0.1645 C.ar      1 MOL         0.0000
      9 C9         -0.3497    0.2584   -0.3845 C.ar      1 MOL         0.0000
     10 C10        -2.5995   -2.5057   -1.8477 C.ar      1 MOL         0.0000
     11 C11        -3.3309   -4.5142   -3.6384 C.ar      1 MOL         0.0000
     12 C12        -3.4266   -3.1729   -4.0155 C.ar      1 MOL         0.0000
     13 C13        -3.1928   -0.7467   -3.5028 C.2       1 MOL         0.0000
     14 C14         0.1187   -3.7704    1.5082 C.2       1 MOL         0.0000
     15 C15        -6.5441   -7.4420   -5.3568 C.2       1 MOL         0.0000
     16 C16         1.5227   -1.1831   -0.0012 C.3       1 MOL         0.0000
     17 C17        -3.8683   -3.8588   -6.1896 C.3       1 MOL         0.0000
     18 C18        -0.7357   -1.0684   -0.9834 C.3       1 MOL         0.0000
     19 C19         0.2556   -2.0223   -0.2630 C.3       1 MOL         0.0000
     20 C20        -4.4956   -5.0983   -5.5655 C.3       1 MOL         0.0000
     21 C21        -2.2053   -1.4449   -0.8546 C.3       1 MOL         0.0000
     22 C22        -0.5652   -4.0428    2.8381 C.3       1 MOL         0.0000
     23 C23        -5.1252   -7.5065   -5.9343 C.3       1 MOL         0.0000
     24 C24        -4.5845   -6.2392   -6.5684 C.3       1 MOL         0.0000
     25 C25        -0.8014   -5.5264    3.1167 C.3       1 MOL         0.0000
     26 C26        -1.7460   -6.1687    2.0964 C.3       1 MOL         0.0000
     27 C27        -1.9338   -7.6508    2.3869 C.3       1 MOL         0.0000
     28 N1         -0.2619   -2.5453    0.9850 N.am      1 MOL         0.0000
     29 N2         -2.8880   -8.2210    1.4056 N.4       1 MOL         0.0000
     30 O1         -4.2969   -0.1340   -3.2628 O.co2     1 MOL         0.0000
     31 O2         -6.7858   -8.1941   -4.3733 O.co2     1 MOL         0.0000
     32 O3         -2.1870   -0.1779   -4.0657 O.co2     1 MOL         0.0000
     33 O4          0.9206   -4.5446    0.9930 O.2       1 MOL         0.0000
     34 O5         -7.3048   -6.6180   -5.9418 O.co2     1 MOL         0.0000
     35 O6         -3.8678   -2.7783   -5.2510 O.3       1 MOL         0.0000
     36 O7         -3.6916   -5.5454   -4.4653 O.3       1 MOL         0.0000
     37 H1          1.2689    3.3828    1.2056 H         1 MOL         0.0000
     38 H2         -1.0066    3.5142    0.2372 H         1 MOL         0.0000
     39 H3          2.5395    1.2462    1.1494 H         1 MOL         0.0000
     40 H4         -2.0502    1.5210   -0.8061 H         1 MOL         0.0000
     41 H5         -2.1053   -4.1180   -0.4967 H         1 MOL         0.0000
     42 H6         -2.7543   -5.8938   -2.0786 H         1 MOL         0.0000
     43 H7          2.1846   -1.1908   -0.8739 H         1 MOL         0.0000
     44 H8          2.0709   -1.5091    0.8880 H         1 MOL         0.0000
     45 H9         -2.8342   -4.0402   -6.5093 H         1 MOL         0.0000
     46 H10        -4.4421   -3.5329   -7.0637 H         1 MOL         0.0000
     47 H11        -0.4715   -1.0323   -2.0492 H         1 MOL         0.0000
     48 H12         0.4807   -2.8974   -0.8823 H         1 MOL         0.0000
     49 H13        -5.5003   -4.8734   -5.1824 H         1 MOL         0.0000
     50 H14        -2.8281   -0.5541   -0.9974 H         1 MOL         0.0000
     51 H15        -2.4080   -1.7972    0.1636 H         1 MOL         0.0000
     52 H16        -1.5134   -3.4938    2.8779 H         1 MOL         0.0000
     53 H17         0.0856   -3.6345    3.6211 H         1 MOL         0.0000
     54 H18        -5.1461   -8.2840   -6.7083 H         1 MOL         0.0000
     55 H19        -4.4440   -7.8548   -5.1477 H         1 MOL         0.0000
     56 H20        -5.1988   -5.9106   -7.4050 H         1 MOL         0.0000
     57 H21        -3.5767   -6.4162   -6.9434 H         1 MOL         0.0000
     58 H22         0.1525   -6.0672    3.1341 H         1 MOL         0.0000
     59 H23        -1.2418   -5.6252    4.1167 H         1 MOL         0.0000
     60 H24        -2.7174   -5.6594    2.1263 H         1 MOL         0.0000
     61 H25        -1.3497   -6.0400    1.0823 H         1 MOL         0.0000
     62 H26        -2.3588   -7.8236    3.3800 H         1 MOL         0.0000
     63 H27        -0.9995   -8.2103    2.2830 H         1 MOL         0.0000
     64 H28        -0.9433   -1.9800    1.4797 H         1 MOL         0.0000
     65 H29        -3.5830   -7.5227    1.1199 H         1 MOL         0.0000
     66 H30        -3.3908   -9.0213    1.8050 H         1 MOL         0.0000
     67 H31        -2.3999   -8.5437    0.5629 H         1 MOL         0.0000
@<TRIPOS>BOND
     1    1    2 ar
     2    1    3 ar
     3    2    4 ar
     4    3    8 ar
     5    4    9 ar
     6    5    6 ar
     7    5   10 ar
     8    6   11 ar
     9    7   10 ar
    10    7   12 ar
    11    7   13 1
    12    8    9 ar
    13    8   16 1
    14    9   18 1
    15   10   21 1
    16   11   12 ar
    17   11   36 1
    18   12   35 1
    19   13   30 1
    20   13   32 2
    21   14   22 1
    22   14   28 am
    23   14   33 2
    24   15   23 1
    25   15   31 1
    26   15   34 2
    27   16   19 1
    28   17   20 1
    29   17   35 1
    30   18   19 1
    31   18   21 1
    32   19   28 1
    33   20   24 1
    34   20   36 1
    35   22   25 1
    36   23   24 1
    37   25   26 1
    38   26   27 1
    39   27   29 1
    40    1   37 1
    41    2   38 1
    42    3   39 1
    43    4   40 1
    44    5   41 1
    45    6   42 1
    46   16   43 1
    47   16   44 1
    48   17   45 1
    49   17   46 1
    50   18   47 1
    51   19   48 1
    52   20   49 1
    53   21   50 1
    54   21   51 1
    55   22   52 1
    56   22   53 1
    57   23   54 1
    58   23   55 1
    59   24   56 1
    60   24   57 1
    61   25   58 1
    62   25   59 1
    63   26   60 1
    64   26   61 1
    65   27   62 1
    66   27   63 1
    67   28   64 1
    68   29   65 1
    69   29   66 1
    70   29   67 1
