@<TRIPOS>MOLECULE
AVX38786_2
   71    74     0     0     0
SMALL
NO_CHARGES

@<TRIPOS>ATOM
      1 C1          1.7803   -2.2259   -7.7617 C.ar      1 MOL         0.0000
      2 C2          0.8617   -1.1825   -7.8750 C.ar      1 MOL         0.0000
      3 C3          2.1430   -2.7022   -6.5018 C.ar      1 MOL         0.0000
      4 C4          0.3058   -0.6151   -6.7283 C.ar      1 MOL         0.0000
      5 C5         -1.9374   -3.2535   -1.4471 C.ar      1 MOL         0.0000
      6 C6          3.3343   -0.3980   -0.7655 C.ar      1 MOL         0.0000
      7 C7          2.0291   -2.3578   -0.2243 C.ar      1 MOL         0.0000
      8 C8         -2.8352   -4.1153   -0.8166 C.ar      1 MOL         0.0000
      9 C9          2.7405    0.2898    0.2927 C.ar      1 MOL         0.0000
     10 C10         1.4353   -1.6700    0.8340 C.ar      1 MOL         0.0000
     11 C11         1.5872   -2.1348   -5.3551 C.ar      1 MOL         0.0000
     12 C12        -3.3700   -1.3747   -0.9332 C.ar      1 MOL         0.0000
     13 C13         2.9786   -1.7218   -1.0241 C.ar      1 MOL         0.0000
     14 C14         0.6685   -1.0912   -5.4684 C.ar      1 MOL         0.0000
     15 C15        -2.2019   -1.8844   -1.5005 C.ar      1 MOL         0.0000
     16 C16        -3.9966   -3.6042   -0.2368 C.ar      1 MOL         0.0000
     17 C17        -4.2746   -2.2377   -0.3140 C.ar      1 MOL         0.0000
     18 C18         1.7910   -0.3462    1.0925 C.ar      1 MOL         0.0000
     19 C19         1.9840   -2.6506   -4.0520 C.2       1 MOL         0.0000
     20 C20        -3.6508    0.0741   -1.0001 C.2       1 MOL         0.0000
     21 C21        -5.4403   -5.8559    3.5966 C.2       1 MOL         0.0000
     22 C22        -6.4067   -2.6679    0.4990 C.3       1 MOL         0.0000
     23 C23        -5.7804   -3.8438    1.2368 C.3       1 MOL         0.0000
     24 C24        -2.2816   -1.3075   -4.4044 C.3       1 MOL         0.0000
     25 C25         0.2498   -0.3854    2.9033 C.3       1 MOL         0.0000
     26 C26         3.6181   -2.4624   -2.1627 C.3       1 MOL         0.0000
     27 C27         0.0557   -0.4623   -4.2519 C.3       1 MOL         0.0000
     28 C28        -1.2157   -0.9880   -2.1764 C.3       1 MOL         0.0000
     29 C29        -6.2072   -6.0890    2.2896 C.3       1 MOL         0.0000
     30 C30        -6.8300   -4.8717    1.6333 C.3       1 MOL         0.0000
     31 N1          3.0893   -2.0482   -3.4424 N.am      1 MOL         0.0000
     32 N2         -1.0008   -1.3248   -3.6097 N.4       1 MOL         0.0000
     33 O1         -3.2266    0.8266   -0.0483 O.co2     1 MOL         0.0000
     34 O2         -4.4809   -6.6401    3.8334 O.co2     1 MOL         0.0000
     35 O3          1.3662   -3.5970   -3.5354 O.2       1 MOL         0.0000
     36 O4         -4.3087    0.5266   -2.0072 O.co2     1 MOL         0.0000
     37 O5         -5.8654   -4.8801    4.2801 O.co2     1 MOL         0.0000
     38 O6         -5.4125   -1.6806    0.2069 O.3       1 MOL         0.0000
     39 O7         -4.8286   -4.4969    0.3860 O.3       1 MOL         0.0000
     40 O8          1.2126    0.3247    2.1259 O.3       1 MOL         0.0000
     41 H1          2.2134   -2.6683   -8.6543 H         1 MOL         0.0000
     42 H2          0.5798   -0.8119   -8.8563 H         1 MOL         0.0000
     43 H3          2.8608   -3.5151   -6.4268 H         1 MOL         0.0000
     44 H4         -0.4094    0.1972   -6.8277 H         1 MOL         0.0000
     45 H5         -1.0313   -3.6584   -1.8902 H         1 MOL         0.0000
     46 H6          4.0730    0.1053   -1.3835 H         1 MOL         0.0000
     47 H7          1.7458   -3.3890   -0.4184 H         1 MOL         0.0000
     48 H8         -2.6164   -5.1786   -0.7707 H         1 MOL         0.0000
     49 H9          3.0220    1.3209    0.4893 H         1 MOL         0.0000
     50 H10         0.6968   -2.1710    1.4535 H         1 MOL         0.0000
     51 H11        -6.8739   -2.9784   -0.4443 H         1 MOL         0.0000
     52 H12        -7.1736   -2.1876    1.1161 H         1 MOL         0.0000
     53 H13        -5.2519   -3.5000    2.1364 H         1 MOL         0.0000
     54 H14        -2.6787   -0.2912   -4.3757 H         1 MOL         0.0000
     55 H15        -2.0446   -1.6077   -5.4268 H         1 MOL         0.0000
     56 H16        -2.9732   -2.0122   -3.9387 H         1 MOL         0.0000
     57 H17        -0.1329    0.2650    3.6936 H         1 MOL         0.0000
     58 H18         0.7155   -1.2723    3.3402 H         1 MOL         0.0000
     59 H19        -0.5748   -0.6912    2.2550 H         1 MOL         0.0000
     60 H20         4.7004   -2.2930   -2.1742 H         1 MOL         0.0000
     61 H21         3.4589   -3.5418   -2.0683 H         1 MOL         0.0000
     62 H22         0.8117   -0.2666   -3.4839 H         1 MOL         0.0000
     63 H23        -0.4238    0.4911   -4.4987 H         1 MOL         0.0000
     64 H24        -1.5407    0.0599   -2.1496 H         1 MOL         0.0000
     65 H25        -0.2308   -1.0390   -1.6948 H         1 MOL         0.0000
     66 H26        -7.0173   -6.7882    2.5321 H         1 MOL         0.0000
     67 H27        -5.5428   -6.6005    1.5819 H         1 MOL         0.0000
     68 H28        -7.5541   -4.3857    2.2850 H         1 MOL         0.0000
     69 H29        -7.3479   -5.1694    0.7219 H         1 MOL         0.0000
     70 H30         3.5953   -1.3211   -3.9374 H         1 MOL         0.0000
     71 H31        -0.6472   -2.2946   -3.6529 H         1 MOL         0.0000
@<TRIPOS>BOND
     1    1    2 ar
     2    1    3 ar
     3    2    4 ar
     4    3   11 ar
     5    4   14 ar
     6    5    8 ar
     7    5   15 ar
     8    6    9 ar
     9    6   13 ar
    10    7   10 ar
    11    7   13 ar
    12    8   16 ar
    13    9   18 ar
    14   10   18 ar
    15   11   14 ar
    16   11   19 1
    17   12   15 ar
    18   12   17 ar
    19   12   20 1
    20   13   26 1
    21   14   27 1
    22   15   28 1
    23   16   17 ar
    24   16   39 1
    25   17   38 1
    26   18   40 1
    27   19   31 am
    28   19   35 2
    29   20   33 1
    30   20   36 2
    31   21   29 1
    32   21   34 1
    33   21   37 2
    34   22   23 1
    35   22   38 1
    36   23   30 1
    37   23   39 1
    38   24   32 1
    39   25   40 1
    40   26   31 1
    41   27   32 1
    42   28   32 1
    43   29   30 1
    44    1   41 1
    45    2   42 1
    46    3   43 1
    47    4   44 1
    48    5   45 1
    49    6   46 1
    50    7   47 1
    51    8   48 1
    52    9   49 1
    53   10   50 1
    54   22   51 1
    55   22   52 1
    56   23   53 1
    57   24   54 1
    58   24   55 1
    59   24   56 1
    60   25   57 1
    61   25   58 1
    62   25   59 1
    63   26   60 1
    64   26   61 1
    65   27   62 1
    66   27   63 1
    67   28   64 1
    68   28   65 1
    69   29   66 1
    70   29   67 1
    71   30   68 1
    72   30   69 1
    73   31   70 1
    74   32   71 1
