@<TRIPOS>MOLECULE
AVX38747_3
   70    73     0     0     0
SMALL
NO_CHARGES

@<TRIPOS>ATOM
      1 C1          0.8227    2.4972    0.7613 C.ar      1 MOL         0.0000
      2 C2         -0.4669    2.5713    0.2131 C.ar      1 MOL         0.0000
      3 C3          1.5390    1.2996    0.7338 C.ar      1 MOL         0.0000
      4 C4         -1.0594    1.4490   -0.3711 C.ar      1 MOL         0.0000
      5 C5         -2.4841   -3.8463   -1.4786 C.ar      1 MOL         0.0000
      6 C6         -2.8331   -4.8526   -2.3797 C.ar      1 MOL         0.0000
      7 C7         -3.0748   -2.1672   -3.1149 C.ar      1 MOL         0.0000
      8 C8          0.9389    0.1885    0.1645 C.ar      1 MOL         0.0000
      9 C9         -0.3497    0.2584   -0.3845 C.ar      1 MOL         0.0000
     10 C10        -2.5995   -2.5057   -1.8477 C.ar      1 MOL         0.0000
     11 C11        -3.2953   -4.5149   -3.6520 C.ar      1 MOL         0.0000
     12 C12        -3.4371   -3.1728   -4.0115 C.ar      1 MOL         0.0000
     13 C13        -3.2044   -0.7465   -3.4986 C.2       1 MOL         0.0000
     14 C14         0.1175   -3.7717    1.5112 C.2       1 MOL         0.0000
     15 C15        -3.9889   -8.6805   -7.4778 C.2       1 MOL         0.0000
     16 C16         1.5227   -1.1831   -0.0012 C.3       1 MOL         0.0000
     17 C17        -4.5717   -3.8476   -5.9213 C.3       1 MOL         0.0000
     18 C18        -0.7357   -1.0684   -0.9834 C.3       1 MOL         0.0000
     19 C19         0.2556   -2.0223   -0.2630 C.3       1 MOL         0.0000
     20 C20        -3.7231   -5.1108   -5.8600 C.3       1 MOL         0.0000
     21 C21        -2.2053   -1.4449   -0.8546 C.3       1 MOL         0.0000
     22 C22        -0.6074   -4.0688    2.8138 C.3       1 MOL         0.0000
     23 C23        -3.4775   -7.4784   -6.6752 C.3       1 MOL         0.0000
     24 C24        -4.3569   -6.2429   -6.6550 C.3       1 MOL         0.0000
     25 C25        -0.2265   -5.4103    3.4384 C.3       1 MOL         0.0000
     26 C26        -0.9700   -5.6744    4.7525 C.3       1 MOL         0.0000
     27 C27        -0.5483   -7.0134    5.3654 C.3       1 MOL         0.0000
     28 C28        -1.2488   -7.3251    6.6822 C.3       1 MOL         0.0000
     29 N1         -0.2619   -2.5453    0.9850 N.am      1 MOL         0.0000
     30 N2         -2.7166   -7.3950    6.4910 N.4       1 MOL         0.0000
     31 O1         -4.3144   -0.1444   -3.2593 O.co2     1 MOL         0.0000
     32 O2         -3.2520   -9.7044   -7.4882 O.co2     1 MOL         0.0000
     33 O3         -2.2023   -0.1672   -4.0573 O.co2     1 MOL         0.0000
     34 O4          0.9194   -4.5458    0.9959 O.2       1 MOL         0.0000
     35 O5         -5.1125   -8.4959   -8.0284 O.co2     1 MOL         0.0000
     36 O6         -3.9165   -2.7778   -5.2326 O.3       1 MOL         0.0000
     37 O7         -3.6026   -5.5469   -4.4989 O.3       1 MOL         0.0000
     38 H1          1.2689    3.3828    1.2056 H         1 MOL         0.0000
     39 H2         -1.0066    3.5142    0.2372 H         1 MOL         0.0000
     40 H3          2.5395    1.2462    1.1494 H         1 MOL         0.0000
     41 H4         -2.0502    1.5210   -0.8061 H         1 MOL         0.0000
     42 H5         -2.1181   -4.1177   -0.4919 H         1 MOL         0.0000
     43 H6         -2.7295   -5.8940   -2.0877 H         1 MOL         0.0000
     44 H7          2.1846   -1.1908   -0.8739 H         1 MOL         0.0000
     45 H8          2.0709   -1.5091    0.8880 H         1 MOL         0.0000
     46 H9         -4.7174   -3.5283   -6.9587 H         1 MOL         0.0000
     47 H10        -5.5609   -3.9963   -5.4694 H         1 MOL         0.0000
     48 H11        -0.4715   -1.0323   -2.0492 H         1 MOL         0.0000
     49 H12         0.4802   -2.8981   -0.8811 H         1 MOL         0.0000
     50 H13        -2.7124   -4.9185   -6.2452 H         1 MOL         0.0000
     51 H14        -2.8281   -0.5541   -0.9974 H         1 MOL         0.0000
     52 H15        -2.4080   -1.7972    0.1636 H         1 MOL         0.0000
     53 H16        -0.4257   -3.2542    3.5245 H         1 MOL         0.0000
     54 H17        -1.6806   -4.0758    2.5869 H         1 MOL         0.0000
     55 H18        -2.5176   -7.1968   -7.1262 H         1 MOL         0.0000
     56 H19        -3.2662   -7.8078   -5.6501 H         1 MOL         0.0000
     57 H20        -5.3376   -6.4500   -6.2301 H         1 MOL         0.0000
     58 H21        -4.5033   -5.8782   -7.6713 H         1 MOL         0.0000
     59 H22        -0.4743   -6.2066    2.7257 H         1 MOL         0.0000
     60 H23         0.8561   -5.4583    3.6062 H         1 MOL         0.0000
     61 H24        -2.0506   -5.6821    4.5652 H         1 MOL         0.0000
     62 H25        -0.7703   -4.8614    5.4582 H         1 MOL         0.0000
     63 H26        -0.7805   -7.8187    4.6576 H         1 MOL         0.0000
     64 H27         0.5390   -7.0256    5.5110 H         1 MOL         0.0000
     65 H28        -0.9328   -8.2849    7.1012 H         1 MOL         0.0000
     66 H29        -1.0684   -6.5332    7.4151 H         1 MOL         0.0000
     67 H30        -0.9358   -1.9865    1.5002 H         1 MOL         0.0000
     68 H31        -2.9563   -7.4538    5.4949 H         1 MOL         0.0000
     69 H32        -3.1781   -6.5635    6.8771 H         1 MOL         0.0000
     70 H33        -3.1104   -8.2193    6.9587 H         1 MOL         0.0000
@<TRIPOS>BOND
     1    1    2 ar
     2    1    3 ar
     3    2    4 ar
     4    3    8 ar
     5    4    9 ar
     6    5    6 ar
     7    5   10 ar
     8    6   11 ar
     9    7   10 ar
    10    7   12 ar
    11    7   13 1
    12    8    9 ar
    13    8   16 1
    14    9   18 1
    15   10   21 1
    16   11   12 ar
    17   11   37 1
    18   12   36 1
    19   13   31 1
    20   13   33 2
    21   14   22 1
    22   14   29 am
    23   14   34 2
    24   15   23 1
    25   15   32 1
    26   15   35 2
    27   16   19 1
    28   17   20 1
    29   17   36 1
    30   18   19 1
    31   18   21 1
    32   19   29 1
    33   20   24 1
    34   20   37 1
    35   22   25 1
    36   23   24 1
    37   25   26 1
    38   26   27 1
    39   27   28 1
    40   28   30 1
    41    1   38 1
    42    2   39 1
    43    3   40 1
    44    4   41 1
    45    5   42 1
    46    6   43 1
    47   16   44 1
    48   16   45 1
    49   17   46 1
    50   17   47 1
    51   18   48 1
    52   19   49 1
    53   20   50 1
    54   21   51 1
    55   21   52 1
    56   22   53 1
    57   22   54 1
    58   23   55 1
    59   23   56 1
    60   24   57 1
    61   24   58 1
    62   25   59 1
    63   25   60 1
    64   26   61 1
    65   26   62 1
    66   27   63 1
    67   27   64 1
    68   28   65 1
    69   28   66 1
    70   29   67 1
    71   30   68 1
    72   30   69 1
    73   30   70 1
