@<TRIPOS>MOLECULE
AVX38743_5
   47    50     0     0     0
SMALL
NO_CHARGES

@<TRIPOS>ATOM
      1 C1          2.0531    3.3397    2.1004 C.ar      1 MOL         0.0000
      2 C2          1.2800    4.0847    3.0021 C.ar      1 MOL         0.0000
      3 C3          1.5159    2.2226    1.4555 C.ar      1 MOL         0.0000
      4 C4          2.0374   -0.6827   -0.1485 C.ar      1 MOL         0.0000
      5 C5         -0.0406    3.7221    3.2706 C.ar      1 MOL         0.0000
      6 C6          3.2357   -0.6019   -0.8584 C.ar      1 MOL         0.0000
      7 C7          0.2026    1.8652    1.7286 C.ar      1 MOL         0.0000
      8 C8          0.9303    0.0616   -0.5572 C.ar      1 MOL         0.0000
      9 C9          1.0149    0.8804   -1.6836 C.ar      1 MOL         0.0000
     10 C10        -0.5647    2.6069    2.6326 C.ar      1 MOL         0.0000
     11 C11         3.3251    0.2272   -1.9768 C.ar      1 MOL         0.0000
     12 C12         2.2088    0.9508   -2.4020 C.ar      1 MOL         0.0000
     13 C13        -0.6056    0.7584    1.2234 C.2       1 MOL         0.0000
     14 C14        -0.3002   -0.0463    0.2173 C.2       1 MOL         0.0000
     15 C15        -0.1573    1.6655   -2.1283 C.2       1 MOL         0.0000
     16 C16         2.2207    3.7366   -7.3730 C.2       1 MOL         0.0000
     17 C17        -1.9667    2.0850    2.7503 C.3       1 MOL         0.0000
     18 C18         4.6158    1.3962   -3.5122 C.3       1 MOL         0.0000
     19 C19        -1.8908    0.7331    2.0175 C.3       1 MOL         0.0000
     20 C20         3.3513    1.4892   -4.3561 C.3       1 MOL         0.0000
     21 C21         2.2296    2.6637   -6.2778 C.3       1 MOL         0.0000
     22 C22         3.4455    2.6178   -5.3724 C.3       1 MOL         0.0000
     23 O1         -0.9723    1.1292   -2.9635 O.co2     1 MOL         0.0000
     24 O2          1.2051    3.7689   -8.1206 O.co2     1 MOL         0.0000
     25 O3         -0.3126    2.8519   -1.6615 O.co2     1 MOL         0.0000
     26 O4          3.2461    4.4772   -7.3814 O.co2     1 MOL         0.0000
     27 O5          4.5336    0.2805   -2.6198 O.3       1 MOL         0.0000
     28 O6          2.2239    1.7559   -3.5104 O.3       1 MOL         0.0000
     29 O7         -1.8134   -0.3239    2.9708 O.3       1 MOL         0.0000
     30 H1          3.0798    3.6352    1.9017 H         1 MOL         0.0000
     31 H2          1.7123    4.9529    3.4920 H         1 MOL         0.0000
     32 H3          2.1279    1.6547    0.7625 H         1 MOL         0.0000
     33 H4          1.9849   -1.3283    0.7252 H         1 MOL         0.0000
     34 H5         -0.6410    4.3053    3.9610 H         1 MOL         0.0000
     35 H6          4.0957   -1.1781   -0.5283 H         1 MOL         0.0000
     36 H7         -0.9956   -0.8118   -0.0799 H         1 MOL         0.0000
     37 H8         -2.2682    1.9815    3.7972 H         1 MOL         0.0000
     38 H9         -2.6447    2.7695    2.2286 H         1 MOL         0.0000
     39 H10         5.4951    1.2440   -4.1469 H         1 MOL         0.0000
     40 H11         4.7792    2.3046   -2.9181 H         1 MOL         0.0000
     41 H12        -2.7719    0.5681    1.3883 H         1 MOL         0.0000
     42 H13         3.1652    0.5431   -4.8818 H         1 MOL         0.0000
     43 H14         2.1632    1.6987   -6.7960 H         1 MOL         0.0000
     44 H15         1.3167    2.7695   -5.6784 H         1 MOL         0.0000
     45 H16         3.5840    3.5524   -4.8317 H         1 MOL         0.0000
     46 H17         4.3410    2.4399   -5.9671 H         1 MOL         0.0000
     47 H18        -2.6492   -0.3139    3.4623 H         1 MOL         0.0000
@<TRIPOS>BOND
     1    1    2 ar
     2    1    3 ar
     3    2    5 ar
     4    3    7 ar
     5    4    6 ar
     6    4    8 ar
     7    5   10 ar
     8    6   11 ar
     9    7   10 ar
    10    7   13 1
    11    8    9 ar
    12    8   14 1
    13    9   12 ar
    14    9   15 1
    15   10   17 1
    16   11   12 ar
    17   11   27 1
    18   12   28 1
    19   13   14 2
    20   13   19 1
    21   15   23 1
    22   15   25 2
    23   16   21 1
    24   16   24 1
    25   16   26 2
    26   17   19 1
    27   18   20 1
    28   18   27 1
    29   19   29 1
    30   20   22 1
    31   20   28 1
    32   21   22 1
    33    1   30 1
    34    2   31 1
    35    3   32 1
    36    4   33 1
    37    5   34 1
    38    6   35 1
    39   14   36 1
    40   17   37 1
    41   17   38 1
    42   18   39 1
    43   18   40 1
    44   19   41 1
    45   20   42 1
    46   21   43 1
    47   21   44 1
    48   22   45 1
    49   22   46 1
    50   29   47 1
