@<TRIPOS>MOLECULE
AVX38669_1
   46    48     0     0     0
SMALL
NO_CHARGES

@<TRIPOS>ATOM
      1 C1         -2.0497    3.7334    0.9584 C.ar      1 MOL         0.0000
      2 C2         -2.1797    3.6884   -0.4296 C.ar      1 MOL         0.0000
      3 C3         -1.8699    2.5537    1.6806 C.ar      1 MOL         0.0000
      4 C4         -2.1299    2.4637   -1.0955 C.ar      1 MOL         0.0000
      5 C5         -1.8201    1.3290    1.0148 C.ar      1 MOL         0.0000
      6 C6          2.2679    2.5812   -4.1577 C.ar      1 MOL         0.0000
      7 C7          2.7056    3.8162   -4.6420 C.ar      1 MOL         0.0000
      8 C8          2.7862    1.5152   -6.2845 C.ar      1 MOL         0.0000
      9 C9         -1.9502    1.2840   -0.3732 C.ar      1 MOL         0.0000
     10 C10         2.3080    1.4373   -4.9742 C.ar      1 MOL         0.0000
     11 C11         3.1731    3.8661   -5.9392 C.ar      1 MOL         0.0000
     12 C12         3.2125    2.7465   -6.7384 C.ar      1 MOL         0.0000
     13 C13         2.8394    0.3326   -7.1589 C.2       1 MOL         0.0000
     14 C14        -3.2764   -0.6668   -1.2265 C.2       1 MOL         0.0000
     15 C15         0.0426    0.0064   -2.6485 C.2       1 MOL         0.0000
     16 C16         3.9746    4.4263   -7.8694 C.3       1 MOL         0.0000
     17 C17        -0.5385    0.4857   -5.0382 C.3       1 MOL         0.0000
     18 C18         1.8266    0.1326   -4.4083 C.3       1 MOL         0.0000
     19 C19        -1.8964   -0.0444   -1.0945 C.3       1 MOL         0.0000
     20 N1         -3.5975   -1.4970   -0.1737 N.am      1 MOL         0.0000
     21 N2         -1.3250    0.1163   -2.4125 N.am      1 MOL         0.0000
     22 N3          0.4295    0.2018   -3.9871 N.am      1 MOL         0.0000
     23 O1          3.9055   -0.3901   -7.1599 O.co2     1 MOL         0.0000
     24 O2          1.8183    0.0592   -7.8946 O.co2     1 MOL         0.0000
     25 O3         -4.0336   -0.4457   -2.1690 O.2       1 MOL         0.0000
     26 O4          0.8465   -0.2351   -1.7429 O.2       1 MOL         0.0000
     27 O5          3.6386    4.9738   -6.5781 O.3       1 MOL         0.0000
     28 O6          3.7072    3.0130   -7.9778 O.3       1 MOL         0.0000
     29 H1         -2.0871    4.6872    1.4765 H         1 MOL         0.0000
     30 H2         -2.3186    4.6070   -0.9923 H         1 MOL         0.0000
     31 H3         -1.7675    2.5884    2.7612 H         1 MOL         0.0000
     32 H4         -2.2323    2.4383   -2.1772 H         1 MOL         0.0000
     33 H5         -1.6799    0.4149    1.5858 H         1 MOL         0.0000
     34 H6          1.8946    2.5119   -3.1387 H         1 MOL         0.0000
     35 H7          2.6765    4.7006   -4.0158 H         1 MOL         0.0000
     36 H8          3.3941    4.9528   -8.6356 H         1 MOL         0.0000
     37 H9          5.0411    4.5969   -8.0563 H         1 MOL         0.0000
     38 H10        -0.6851    1.5648   -5.1326 H         1 MOL         0.0000
     39 H11        -1.4992    0.0193   -4.8034 H         1 MOL         0.0000
     40 H12        -0.1833    0.0937   -5.9951 H         1 MOL         0.0000
     41 H13         1.9154   -0.6670   -5.1518 H         1 MOL         0.0000
     42 H14         2.4239   -0.1632   -3.5395 H         1 MOL         0.0000
     43 H15        -1.2519   -0.7425   -0.5466 H         1 MOL         0.0000
     44 H16        -2.9658   -1.6612    0.6036 H         1 MOL         0.0000
     45 H17        -4.4932   -1.9723   -0.1399 H         1 MOL         0.0000
     46 H18        -1.9411    0.3157   -3.1916 H         1 MOL         0.0000
@<TRIPOS>BOND
     1    1    2 ar
     2    1    3 ar
     3    2    4 ar
     4    3    5 ar
     5    4    9 ar
     6    5    9 ar
     7    6    7 ar
     8    6   10 ar
     9    7   11 ar
    10    8   10 ar
    11    8   12 ar
    12    8   13 1
    13    9   19 1
    14   10   18 1
    15   11   12 ar
    16   11   27 1
    17   12   28 1
    18   13   23 1
    19   13   24 2
    20   14   19 1
    21   14   20 am
    22   14   25 2
    23   15   21 am
    24   15   22 am
    25   15   26 2
    26   16   27 1
    27   16   28 1
    28   17   22 1
    29   18   22 1
    30   19   21 1
    31    1   29 1
    32    2   30 1
    33    3   31 1
    34    4   32 1
    35    5   33 1
    36    6   34 1
    37    7   35 1
    38   16   36 1
    39   16   37 1
    40   17   38 1
    41   17   39 1
    42   17   40 1
    43   18   41 1
    44   18   42 1
    45   19   43 1
    46   20   44 1
    47   20   45 1
    48   21   46 1
