@<TRIPOS>MOLECULE
AVX40915_0
   46    47     0     0     0
SMALL
NO_CHARGES

@<TRIPOS>ATOM
      1 C1          6.7171   -3.8237   -1.6466 C.ar      1 MOL         0.0000
      2 C2          6.6630   -2.7290   -2.5094 C.ar      1 MOL         0.0000
      3 C3          5.5441   -4.4878   -1.2880 C.ar      1 MOL         0.0000
      4 C4          5.4358   -2.2984   -3.0135 C.ar      1 MOL         0.0000
      5 C5          4.3169   -4.0572   -1.7921 C.ar      1 MOL         0.0000
      6 C6          2.0324    0.2126   -5.3271 C.ar      1 MOL         0.0000
      7 C7          2.6464    1.1645   -6.1410 C.ar      1 MOL         0.0000
      8 C8          2.5175    1.5623   -3.3828 C.ar      1 MOL         0.0000
      9 C9          4.2627   -2.9625   -2.6548 C.ar      1 MOL         0.0000
     10 C10         1.9679    0.4115   -3.9479 C.ar      1 MOL         0.0000
     11 C11         3.1959    2.3153   -5.5759 C.ar      1 MOL         0.0000
     12 C12         3.1315    2.5142   -4.1968 C.ar      1 MOL         0.0000
     13 C13         2.4532    1.7754   -1.9231 C.2       1 MOL         0.0000
     14 C14         3.5244    5.2325   -7.6409 C.2       1 MOL         0.0000
     15 C15         1.6477   -2.0887   -1.1095 C.3       1 MOL         0.0000
     16 C16         2.8161    4.7759   -3.5327 C.3       1 MOL         0.0000
     17 C17         2.9423   -2.4997   -3.1965 C.3       1 MOL         0.0000
     18 C18         1.3014   -0.6294   -3.0975 C.3       1 MOL         0.0000
     19 C19         2.9828    3.8339   -7.3937 C.3       1 MOL         0.0000
     20 N1          2.2767   -1.4721   -2.3263 N.4       1 MOL         0.0000
     21 O1          1.4379    2.3961   -1.4363 O.co2     1 MOL         0.0000
     22 O2          4.7314    5.2823   -8.0109 O.co2     1 MOL         0.0000
     23 O3          3.4149    1.3326   -1.1939 O.co2     1 MOL         0.0000
     24 O4          2.6978    6.1684   -7.4522 O.co2     1 MOL         0.0000
     25 O5          3.6719    3.6424   -3.6525 O.3       1 MOL         0.0000
     26 O6          3.7925    3.2366   -6.3830 O.3       1 MOL         0.0000
     27 H1          7.6730   -4.1597   -1.2552 H         1 MOL         0.0000
     28 H2          7.5764   -2.2125   -2.7896 H         1 MOL         0.0000
     29 H3          5.5860   -5.3408   -0.6171 H         1 MOL         0.0000
     30 H4          5.4031   -1.4445   -3.6850 H         1 MOL         0.0000
     31 H5          3.4081   -4.5806   -1.5071 H         1 MOL         0.0000
     32 H6          1.6069   -0.6806   -5.7768 H         1 MOL         0.0000
     33 H7          2.6931    1.0038   -7.2147 H         1 MOL         0.0000
     34 H8          0.8586   -2.7631   -1.4469 H         1 MOL         0.0000
     35 H9          2.4257   -2.6329   -0.5706 H         1 MOL         0.0000
     36 H10         1.2391   -1.2811   -0.4990 H         1 MOL         0.0000
     37 H11         3.3691    5.6052   -3.0850 H         1 MOL         0.0000
     38 H12         1.9554    4.5195   -2.9098 H         1 MOL         0.0000
     39 H13         2.4698    5.0666   -4.5273 H         1 MOL         0.0000
     40 H14         3.0576   -2.0461   -4.1868 H         1 MOL         0.0000
     41 H15         2.2394   -3.3343   -3.2916 H         1 MOL         0.0000
     42 H16         0.6319   -0.1705   -2.3621 H         1 MOL         0.0000
     43 H17         0.7057   -1.3167   -3.7079 H         1 MOL         0.0000
     44 H18         3.0452    3.2358   -8.3080 H         1 MOL         0.0000
     45 H19         1.9441    3.8609   -7.0504 H         1 MOL         0.0000
     46 H20         3.0168   -0.8405   -1.9916 H         1 MOL         0.0000
@<TRIPOS>BOND
     1    1    2 ar
     2    1    3 ar
     3    2    4 ar
     4    3    5 ar
     5    4    9 ar
     6    5    9 ar
     7    6    7 ar
     8    6   10 ar
     9    7   11 ar
    10    8   10 ar
    11    8   12 ar
    12    8   13 1
    13    9   17 1
    14   10   18 1
    15   11   12 ar
    16   11   26 1
    17   12   25 1
    18   13   21 1
    19   13   23 2
    20   14   19 1
    21   14   22 1
    22   14   24 2
    23   15   20 1
    24   16   25 1
    25   17   20 1
    26   18   20 1
    27   19   26 1
    28    1   27 1
    29    2   28 1
    30    3   29 1
    31    4   30 1
    32    5   31 1
    33    6   32 1
    34    7   33 1
    35   15   34 1
    36   15   35 1
    37   15   36 1
    38   16   37 1
    39   16   38 1
    40   16   39 1
    41   17   40 1
    42   17   41 1
    43   18   42 1
    44   18   43 1
    45   19   44 1
    46   19   45 1
    47   20   46 1
