@<TRIPOS>MOLECULE
AVX40911_1
   31    33     0     0     0
SMALL
NO_CHARGES

@<TRIPOS>ATOM
      1 C1          1.1040   -1.3282   -5.2506 C.ar      1 MOL         0.0000
      2 C2          0.4189   -2.0260   -4.2560 C.ar      1 MOL         0.0000
      3 C3          1.5504   -0.0288   -5.0095 C.ar      1 MOL         0.0000
      4 C4          0.1801   -1.4246   -3.0204 C.ar      1 MOL         0.0000
      5 C5          1.3116    0.5727   -3.7739 C.ar      1 MOL         0.0000
      6 C6          0.8726    1.2794    1.5062 C.ar      1 MOL         0.0000
      7 C7          0.7042    1.9049    2.7438 C.ar      1 MOL         0.0000
      8 C8          0.6264   -0.1252   -2.7793 C.ar      1 MOL         0.0000
      9 C9         -0.1481    0.4787    0.9641 C.ar      1 MOL         0.0000
     10 C10        -1.3491    0.2943    1.6535 C.ar      1 MOL         0.0000
     11 C11        -0.4910    1.7067    3.4041 C.ar      1 MOL         0.0000
     12 C12        -1.4901    0.9230    2.8735 C.ar      1 MOL         0.0000
     13 C13         0.3743    0.5108   -1.4741 C.2       1 MOL         0.0000
     14 C14         0.0823   -0.1497   -0.3310 C.2       1 MOL         0.0000
     15 C15        -2.4412   -0.5352    1.1144 C.2       1 MOL         0.0000
     16 C16        -2.1588    1.6916    4.7825 C.3       1 MOL         0.0000
     17 O1         -3.3339    0.0234    0.3742 O.co2     1 MOL         0.0000
     18 O2         -2.4649   -1.7893    1.4024 O.co2     1 MOL         0.0000
     19 O3         -0.8328    2.2326    4.6117 O.3       1 MOL         0.0000
     20 O4         -2.5825    0.8600    3.6827 O.3       1 MOL         0.0000
     21 H1          1.2910   -1.7969   -6.2122 H         1 MOL         0.0000
     22 H2          0.0722   -3.0383   -4.4431 H         1 MOL         0.0000
     23 H3          2.0848    0.5143   -5.7834 H         1 MOL         0.0000
     24 H4         -0.3555   -1.9813   -2.2550 H         1 MOL         0.0000
     25 H5          1.6658    1.5862   -3.6012 H         1 MOL         0.0000
     26 H6          1.8074    1.4236    0.9684 H         1 MOL         0.0000
     27 H7          1.4894    2.5227    3.1648 H         1 MOL         0.0000
     28 H8          0.4696    1.5939   -1.4637 H         1 MOL         0.0000
     29 H9          0.0388   -1.2429   -0.3443 H         1 MOL         0.0000
     30 H10        -2.1790    1.0955    5.7021 H         1 MOL         0.0000
     31 H11        -2.8656    2.5229    4.8860 H         1 MOL         0.0000
@<TRIPOS>BOND
     1    1    2 ar
     2    1    3 ar
     3    2    4 ar
     4    3    5 ar
     5    4    8 ar
     6    5    8 ar
     7    6    7 ar
     8    6    9 ar
     9    7   11 ar
    10    8   13 1
    11    9   10 ar
    12    9   14 1
    13   10   12 ar
    14   10   15 1
    15   11   12 ar
    16   11   19 1
    17   12   20 1
    18   13   14 2
    19   15   17 1
    20   15   18 2
    21   16   19 1
    22   16   20 1
    23    1   21 1
    24    2   22 1
    25    3   23 1
    26    4   24 1
    27    5   25 1
    28    6   26 1
    29    7   27 1
    30   13   28 1
    31   14   29 1
    32   16   30 1
    33   16   31 1
