@<TRIPOS>MOLECULE
AVX40916_1
   46    47     0     0     0
SMALL
NO_CHARGES

@<TRIPOS>ATOM
      1 C1          0.9935   -0.4188    4.0458 C.ar      1 MOL         0.0000
      2 C2          2.0666    0.3998    4.3976 C.ar      1 MOL         0.0000
      3 C3         -0.4817    0.9333    5.3997 C.ar      1 MOL         0.0000
      4 C4         -0.2807   -0.1520    4.5468 C.ar      1 MOL         0.0000
      5 C5          1.8657    1.4851    5.2505 C.ar      1 MOL         0.0000
      6 C6          0.5915    1.7519    5.7515 C.ar      1 MOL         0.0000
      7 C7         -1.8286    1.2176    5.9338 C.2       1 MOL         0.0000
      8 C8          0.2914    3.8899    8.6990 C.2       1 MOL         0.0000
      9 C9         -2.4879   -4.6735    4.2650 C.3       1 MOL         0.0000
     10 C10        -3.4283   -3.4958    4.0429 C.3       1 MOL         0.0000
     11 C11        -1.0409   -4.2116    4.4022 C.3       1 MOL         0.0000
     12 C12        -3.2762   -2.4369    5.1235 C.3       1 MOL         0.0000
     13 C13        -0.8479   -3.1288    5.4673 C.3       1 MOL         0.0000
     14 C14        -0.9835   -3.6581    6.8948 C.3       1 MOL         0.0000
     15 C15         4.1908    1.9334    5.0297 C.3       1 MOL         0.0000
     16 C16        -1.4159   -1.0496    4.1510 C.3       1 MOL         0.0000
     17 C17         0.5540    2.5752    7.9823 C.3       1 MOL         0.0000
     18 N1         -1.8368   -1.9912    5.2524 N.4       1 MOL         0.0000
     19 O1         -2.6033    1.9965    5.2659 O.co2     1 MOL         0.0000
     20 O2         -0.8504    4.3915    8.4973 O.co2     1 MOL         0.0000
     21 O3         -2.1759    0.6758    7.0468 O.co2     1 MOL         0.0000
     22 O4          1.2450    4.3117    9.4114 O.co2     1 MOL         0.0000
     23 O5          2.9230    2.2762    5.5857 O.3       1 MOL         0.0000
     24 O6          0.4041    2.8152    6.5853 O.3       1 MOL         0.0000
     25 H1          1.1601   -1.2618    3.3805 H         1 MOL         0.0000
     26 H2          3.0568    0.1868    4.0038 H         1 MOL         0.0000
     27 H3         -2.7883   -5.2229    5.1666 H         1 MOL         0.0000
     28 H4         -2.5710   -5.3757    3.4239 H         1 MOL         0.0000
     29 H5         -3.2297   -3.0482    3.0604 H         1 MOL         0.0000
     30 H6         -4.4669   -3.8548    4.0200 H         1 MOL         0.0000
     31 H7         -0.4082   -5.0844    4.6348 H         1 MOL         0.0000
     32 H8         -0.6948   -3.8372    3.4258 H         1 MOL         0.0000
     33 H9         -3.8825   -1.5436    4.9067 H         1 MOL         0.0000
     34 H10        -3.5849   -2.8453    6.0975 H         1 MOL         0.0000
     35 H11         0.1663   -2.6600    5.3546 H         1 MOL         0.0000
     36 H12        -1.9615   -4.1179    7.0265 H         1 MOL         0.0000
     37 H13        -0.8760   -2.8390    7.6038 H         1 MOL         0.0000
     38 H14        -0.2111   -4.4009    7.0878 H         1 MOL         0.0000
     39 H15         4.9456    2.6433    5.3767 H         1 MOL         0.0000
     40 H16         4.1291    1.9549    3.9388 H         1 MOL         0.0000
     41 H17         4.4623    0.9271    5.3575 H         1 MOL         0.0000
     42 H18        -2.3033   -0.4686    3.8777 H         1 MOL         0.0000
     43 H19        -1.1466   -1.6721    3.2909 H         1 MOL         0.0000
     44 H20        -0.1704    1.8189    8.2996 H         1 MOL         0.0000
     45 H21         1.5667    2.2085    8.1756 H         1 MOL         0.0000
     46 H22        -1.7891   -1.4057    6.1371 H         1 MOL         0.0000
@<TRIPOS>BOND
     1    1    2 ar
     2    1    4 ar
     3    2    5 ar
     4    3    4 ar
     5    3    6 ar
     6    3    7 1
     7    4   16 1
     8    5    6 ar
     9    5   23 1
    10    6   24 1
    11    7   19 1
    12    7   21 2
    13    8   17 1
    14    8   20 1
    15    8   22 2
    16    9   10 1
    17    9   11 1
    18   10   12 1
    19   11   13 1
    20   12   18 1
    21   13   14 1
    22   13   18 1
    23   15   23 1
    24   16   18 1
    25   17   24 1
    26    1   25 1
    27    2   26 1
    28    9   27 1
    29    9   28 1
    30   10   29 1
    31   10   30 1
    32   11   31 1
    33   11   32 1
    34   12   33 1
    35   12   34 1
    36   13   35 1
    37   14   36 1
    38   14   37 1
    39   14   38 1
    40   15   39 1
    41   15   40 1
    42   15   41 1
    43   16   42 1
    44   16   43 1
    45   17   44 1
    46   17   45 1
    47   18   46 1
