AVX40915_1
  -OEChem-04011315023D

 46 47  0     1  0  0  0  0  0999 V2000
    3.8246   -2.4736   -1.6386 C   0  0  0  0  0  0  0  0  0  0  0  0
    4.5374   -1.3211   -1.3082 C   0  0  0  0  0  0  0  0  0  0  0  0
    2.6896   -2.3847   -2.4445 C   0  0  0  0  0  0  0  0  0  0  0  0
    4.1152   -0.0796   -1.7837 C   0  0  0  0  0  0  0  0  0  0  0  0
    2.2674   -1.1433   -2.9200 C   0  0  0  0  0  0  0  0  0  0  0  0
   -1.7466    2.9312   -1.7854 C   0  0  0  0  0  0  0  0  0  0  0  0
   -2.6634    3.5093   -0.9075 C   0  0  0  0  0  0  0  0  0  0  0  0
   -0.7439    1.7278    0.0541 C   0  0  0  0  0  0  0  0  0  0  0  0
    2.9801    0.0093   -2.5896 C   0  0  0  0  0  0  0  0  0  0  0  0
   -0.7868    2.0404   -1.3046 C   0  0  0  0  0  0  0  0  0  0  0  0
   -2.6205    3.1967    0.4512 C   0  0  0  0  0  0  0  0  0  0  0  0
   -1.6607    2.3060    0.9320 C   0  0  0  0  0  0  0  0  0  0  0  0
    0.2719    0.7870    0.5672 C   0  0  0  0  0  0  0  0  0  0  0  0
   -5.6278    3.5647    2.3756 C   0  0  0  0  0  0  0  0  0  0  0  0
    1.5462    3.5196   -2.3805 C   0  0  0  0  0  0  0  0  0  0  0  0
   -2.4083    0.8964    2.6956 C   0  0  0  0  0  0  0  0  0  0  0  0
    2.5253    1.3444   -3.1012 C   0  0  0  0  0  0  0  0  0  0  0  0
    0.1862    1.4340   -2.2724 C   0  0  0  0  0  0  0  0  0  0  0  0
   -4.9022    3.5164    1.0407 C   0  0  0  0  0  0  0  0  0  0  0  0
    1.5610    2.0315   -2.1768 N   0  3  2  0  0  0  0  0  0  0  0  0
   -0.0138   -0.4659    0.6055 O   0  5  0  0  0  0  0  0  0  0  0  0
   -5.5283    4.6582    3.0005 O   0  5  0  0  0  0  0  0  0  0  0  0
    1.4038    1.2562    0.9566 O   0  0  0  0  0  0  0  0  0  0  0  0
   -6.2446    2.5082    2.6889 O   0  0  0  0  0  0  0  0  0  0  0  0
   -1.6258    2.0062    2.2624 O   0  0  0  0  0  0  0  0  0  0  0  0
   -3.5222    3.7688    1.2973 O   0  0  0  0  0  0  0  0  0  0  0  0
    4.1543   -3.4404   -1.2694 H   0  0  0  0  0  0  0  0  0  0  0  0
    5.4218   -1.3902   -0.6816 H   0  0  0  0  0  0  0  0  0  0  0  0
    2.1351   -3.2820   -2.7029 H   0  0  0  0  0  0  0  0  0  0  0  0
    4.6767    0.8131   -1.5210 H   0  0  0  0  0  0  0  0  0  0  0  0
    1.3818   -1.0836   -3.5473 H   0  0  0  0  0  0  0  0  0  0  0  0
   -1.7882    3.1808   -2.8423 H   0  0  0  0  0  0  0  0  0  0  0  0
   -3.4087    4.2023   -1.2883 H   0  0  0  0  0  0  0  0  0  0  0  0
    1.1941    3.7143   -3.3952 H   0  0  0  0  0  0  0  0  0  0  0  0
    0.8697    3.9515   -1.6406 H   0  0  0  0  0  0  0  0  0  0  0  0
    2.5652    3.8860   -2.2418 H   0  0  0  0  0  0  0  0  0  0  0  0
   -2.2915    0.7661    3.7742 H   0  0  0  0  0  0  0  0  0  0  0  0
   -2.0836   -0.0061    2.1715 H   0  0  0  0  0  0  0  0  0  0  0  0
   -3.4586    1.0908    2.4659 H   0  0  0  0  0  0  0  0  0  0  0  0
    3.3719    2.0261   -3.2360 H   0  0  0  0  0  0  0  0  0  0  0  0
    2.0189    1.2460   -4.0675 H   0  0  0  0  0  0  0  0  0  0  0  0
    0.2981    0.3582   -2.0996 H   0  0  0  0  0  0  0  0  0  0  0  0
   -0.1460    1.5731   -3.3068 H   0  0  0  0  0  0  0  0  0  0  0  0
   -5.2924    4.2868    0.3688 H   0  0  0  0  0  0  0  0  0  0  0  0
   -5.0041    2.5366    0.5642 H   0  0  0  0  0  0  0  0  0  0  0  0
    1.8945    1.8653   -1.2177 H   0  0  0  0  0  0  0  0  0  0  0  0
  1  2  2  0  0  0  0
  1  3  1  0  0  0  0
  2  4  1  0  0  0  0
  3  5  2  0  0  0  0
  4  9  2  0  0  0  0
  5  9  1  0  0  0  0
  6  7  2  0  0  0  0
  6 10  1  0  0  0  0
  7 11  1  0  0  0  0
  8 10  2  0  0  0  0
  8 12  1  0  0  0  0
  8 13  1  0  0  0  0
  9 17  1  0  0  0  0
 10 18  1  0  0  0  0
 11 12  2  0  0  0  0
 11 26  1  0  0  0  0
 12 25  1  0  0  0  0
 13 21  1  0  0  0  0
 13 23  2  0  0  0  0
 14 19  1  0  0  0  0
 14 22  1  0  0  0  0
 14 24  2  0  0  0  0
 15 20  1  0  0  0  0
 16 25  1  0  0  0  0
 17 20  1  0  0  0  0
 18 20  1  0  0  0  0
 19 26  1  0  0  0  0
  1 27  1  0  0  0  0
  2 28  1  0  0  0  0
  3 29  1  0  0  0  0
  4 30  1  0  0  0  0
  5 31  1  0  0  0  0
  6 32  1  0  0  0  0
  7 33  1  0  0  0  0
 15 34  1  0  0  0  0
 15 35  1  0  0  0  0
 15 36  1  0  0  0  0
 16 37  1  0  0  0  0
 16 38  1  0  0  0  0
 16 39  1  0  0  0  0
 17 40  1  0  0  0  0
 17 41  1  0  0  0  0
 18 42  1  0  0  0  0
 18 43  1  0  0  0  0
 19 44  1  0  0  0  0
 19 45  1  0  0  0  0
 20 46  1  0  0  0  0
M  CHG  3  20   1  21  -1  22  -1
M  END
$$$$
