AVX40944_1
  -OEChem-04011315033D

 58 60  0     1  0  0  0  0  0999 V2000
    6.5136    1.8707   -1.1027 C   0  0  0  0  0  0  0  0  0  0  0  0
    6.1025    2.4978   -2.2788 C   0  0  0  0  0  0  0  0  0  0  0  0
    5.6550    0.9895   -0.4453 C   0  0  0  0  0  0  0  0  0  0  0  0
    2.7827    3.0930    3.1138 C   0  0  0  0  0  0  0  0  0  0  0  0
    3.0220    4.0876    2.1656 C   0  0  0  0  0  0  0  0  0  0  0  0
    4.8328    2.2439   -2.7975 C   0  0  0  0  0  0  0  0  0  0  0  0
    4.3854    0.7355   -0.9640 C   0  0  0  0  0  0  0  0  0  0  0  0
    1.4735    2.7696    3.4702 C   0  0  0  0  0  0  0  0  0  0  0  0
   -1.7467    2.9307   -1.7860 C   0  0  0  0  0  0  0  0  0  0  0  0
   -2.6638    3.5091   -0.9085 C   0  0  0  0  0  0  0  0  0  0  0  0
    0.6428    4.4356    1.9302 C   0  0  0  0  0  0  0  0  0  0  0  0
    1.9521    4.7589    1.5738 C   0  0  0  0  0  0  0  0  0  0  0  0
   -0.7440    1.7286    0.0543 C   0  0  0  0  0  0  0  0  0  0  0  0
    3.9742    1.3627   -2.1401 C   0  0  0  0  0  0  0  0  0  0  0  0
    0.4035    3.4409    2.8784 C   0  0  0  0  0  0  0  0  0  0  0  0
   -0.7868    2.0404   -1.3046 C   0  0  0  0  0  0  0  0  0  0  0  0
   -1.6610    2.3071    0.9318 C   0  0  0  0  0  0  0  0  0  0  0  0
   -2.6209    3.1973    0.4504 C   0  0  0  0  0  0  0  0  0  0  0  0
    2.2040    5.8086    0.5736 C   0  0  0  0  0  0  0  0  0  0  0  0
    0.2731    0.7857    0.5622 C   0  0  0  0  0  0  0  0  0  0  0  0
    1.6377    3.3803   -2.8348 C   0  0  0  0  0  0  0  0  0  0  0  0
   -4.4697    4.6701    0.7123 C   0  0  0  0  0  0  0  0  0  0  0  0
   -1.0132    3.0912    3.2641 C   0  0  0  0  0  0  0  0  0  0  0  0
   -1.6243    1.9799    2.3912 C   0  0  0  0  0  0  0  0  0  0  0  0
    2.6083    1.0892   -2.6974 C   0  0  0  0  0  0  0  0  0  0  0  0
    0.1862    1.4340   -2.2724 C   0  0  0  0  0  0  0  0  0  0  0  0
    1.5609    2.0319   -2.1773 N   0  3  2  0  0  0  0  0  0  0  0  0
    1.1982    6.4128    0.0422 O   0  5  0  0  0  0  0  0  0  0  0  0
   -0.0138   -0.4667    0.5989 O   0  5  0  0  0  0  0  0  0  0  0  0
    3.4219    6.0886    0.2620 O   0  0  0  0  0  0  0  0  0  0  0  0
    1.4064    1.2534    0.9485 O   0  0  0  0  0  0  0  0  0  0  0  0
   -3.5253    3.7726    1.2919 O   0  0  0  0  0  0  0  0  0  0  0  0
    7.5027    2.0675   -0.6996 H   0  0  0  0  0  0  0  0  0  0  0  0
    6.7712    3.1832   -2.7913 H   0  0  0  0  0  0  0  0  0  0  0  0
    5.9752    0.5002    0.4698 H   0  0  0  0  0  0  0  0  0  0  0  0
    3.6160    2.5703    3.5742 H   0  0  0  0  0  0  0  0  0  0  0  0
    4.0461    4.3316    1.8948 H   0  0  0  0  0  0  0  0  0  0  0  0
    4.5209    2.7372   -3.7143 H   0  0  0  0  0  0  0  0  0  0  0  0
    3.7232    0.0475   -0.4450 H   0  0  0  0  0  0  0  0  0  0  0  0
    1.2965    1.9932    4.2097 H   0  0  0  0  0  0  0  0  0  0  0  0
   -1.7885    3.1802   -2.8430 H   0  0  0  0  0  0  0  0  0  0  0  0
   -3.4090    4.2018   -1.2901 H   0  0  0  0  0  0  0  0  0  0  0  0
   -0.1925    4.9580    1.4696 H   0  0  0  0  0  0  0  0  0  0  0  0
    1.4319    3.2454   -3.8982 H   0  0  0  0  0  0  0  0  0  0  0  0
    0.8885    4.0227   -2.3683 H   0  0  0  0  0  0  0  0  0  0  0  0
    2.6443    3.7722   -2.6766 H   0  0  0  0  0  0  0  0  0  0  0  0
   -5.1310    5.0575    1.4912 H   0  0  0  0  0  0  0  0  0  0  0  0
   -5.0533    4.1452   -0.0482 H   0  0  0  0  0  0  0  0  0  0  0  0
   -3.9324    5.5003    0.2476 H   0  0  0  0  0  0  0  0  0  0  0  0
   -1.0142    2.7729    4.3148 H   0  0  0  0  0  0  0  0  0  0  0  0
   -1.6419    3.9901    3.2271 H   0  0  0  0  0  0  0  0  0  0  0  0
   -2.6523    1.7897    2.7398 H   0  0  0  0  0  0  0  0  0  0  0  0
   -1.0857    1.0335    2.5608 H   0  0  0  0  0  0  0  0  0  0  0  0
    2.6003    1.1813   -3.7888 H   0  0  0  0  0  0  0  0  0  0  0  0
    2.2737    0.0771   -2.4455 H   0  0  0  0  0  0  0  0  0  0  0  0
    0.2985    0.3583   -2.0993 H   0  0  0  0  0  0  0  0  0  0  0  0
   -0.1463    1.5727   -3.3068 H   0  0  0  0  0  0  0  0  0  0  0  0
    1.7569    2.1763   -1.1775 H   0  0  0  0  0  0  0  0  0  0  0  0
  1  2  2  0  0  0  0
  1  3  1  0  0  0  0
  2  6  1  0  0  0  0
  3  7  2  0  0  0  0
  4  5  2  0  0  0  0
  4  8  1  0  0  0  0
  5 12  1  0  0  0  0
  6 14  2  0  0  0  0
  7 14  1  0  0  0  0
  8 15  2  0  0  0  0
  9 10  2  0  0  0  0
  9 16  1  0  0  0  0
 10 18  1  0  0  0  0
 11 12  2  0  0  0  0
 11 15  1  0  0  0  0
 12 19  1  0  0  0  0
 13 16  2  0  0  0  0
 13 17  1  0  0  0  0
 13 20  1  0  0  0  0
 14 25  1  0  0  0  0
 15 23  1  0  0  0  0
 16 26  1  0  0  0  0
 17 18  2  0  0  0  0
 17 24  1  0  0  0  0
 18 32  1  0  0  0  0
 19 28  1  0  0  0  0
 19 30  2  0  0  0  0
 20 29  1  0  0  0  0
 20 31  2  0  0  0  0
 21 27  1  0  0  0  0
 22 32  1  0  0  0  0
 23 24  1  0  0  0  0
 25 27  1  0  0  0  0
 26 27  1  0  0  0  0
  1 33  1  0  0  0  0
  2 34  1  0  0  0  0
  3 35  1  0  0  0  0
  4 36  1  0  0  0  0
  5 37  1  0  0  0  0
  6 38  1  0  0  0  0
  7 39  1  0  0  0  0
  8 40  1  0  0  0  0
  9 41  1  0  0  0  0
 10 42  1  0  0  0  0
 11 43  1  0  0  0  0
 21 44  1  0  0  0  0
 21 45  1  0  0  0  0
 21 46  1  0  0  0  0
 22 47  1  0  0  0  0
 22 48  1  0  0  0  0
 22 49  1  0  0  0  0
 23 50  1  0  0  0  0
 23 51  1  0  0  0  0
 24 52  1  0  0  0  0
 24 53  1  0  0  0  0
 25 54  1  0  0  0  0
 25 55  1  0  0  0  0
 26 56  1  0  0  0  0
 26 57  1  0  0  0  0
 27 58  1  0  0  0  0
M  CHG  3  27   1  28  -1  29  -1
M  END
$$$$
