@<TRIPOS>MOLECULE
AVX40988_0
   31    33     0     0     0
SMALL
NO_CHARGES

@<TRIPOS>ATOM
      1 C1          0.4176   -2.0272   -4.2542 C.ar      1 MOL         0.0000
      2 C2          0.1795   -1.4246   -3.0190 C.ar      1 MOL         0.0000
      3 C3          0.8726    1.2794    1.5062 C.ar      1 MOL         0.0000
      4 C4          0.7042    1.9049    2.7438 C.ar      1 MOL         0.0000
      5 C5          1.1028   -1.3305   -5.2497 C.ar      1 MOL         0.0000
      6 C6          1.3115    0.5716   -3.7747 C.ar      1 MOL         0.0000
      7 C7          0.6264   -0.1252   -2.7793 C.ar      1 MOL         0.0000
      8 C8         -0.1481    0.4787    0.9641 C.ar      1 MOL         0.0000
      9 C9         -1.3491    0.2943    1.6535 C.ar      1 MOL         0.0000
     10 C10        -0.4910    1.7067    3.4041 C.ar      1 MOL         0.0000
     11 C11        -1.4901    0.9230    2.8735 C.ar      1 MOL         0.0000
     12 C12         1.5496   -0.0311   -5.0099 C.ar      1 MOL         0.0000
     13 C13         0.3743    0.5108   -1.4741 C.2       1 MOL         0.0000
     14 C14         0.0823   -0.1497   -0.3310 C.2       1 MOL         0.0000
     15 C15        -2.4412   -0.5352    1.1144 C.2       1 MOL         0.0000
     16 C16        -2.1588    1.6916    4.7825 C.3       1 MOL         0.0000
     17 O1         -3.3339    0.0234    0.3742 O.co2     1 MOL         0.0000
     18 O2         -2.4649   -1.7893    1.4024 O.co2     1 MOL         0.0000
     19 O3         -0.8328    2.2326    4.6117 O.3       1 MOL         0.0000
     20 O4         -2.5825    0.8600    3.6827 O.3       1 MOL         0.0000
     21 Cl1         2.3948    0.8277   -6.2389 Cl        1 MOL         0.0000
     22 H1          0.0697   -3.0390   -4.4409 H         1 MOL         0.0000
     23 H2         -0.3559   -1.9805   -2.2531 H         1 MOL         0.0000
     24 H3          1.8074    1.4236    0.9684 H         1 MOL         0.0000
     25 H4          1.4894    2.5227    3.1648 H         1 MOL         0.0000
     26 H5          1.2811   -1.8129   -6.2073 H         1 MOL         0.0000
     27 H6          1.6604    1.5855   -3.5885 H         1 MOL         0.0000
     28 H7          0.4696    1.5939   -1.4637 H         1 MOL         0.0000
     29 H8          0.0388   -1.2429   -0.3443 H         1 MOL         0.0000
     30 H9         -2.1790    1.0955    5.7021 H         1 MOL         0.0000
     31 H10        -2.8656    2.5229    4.8860 H         1 MOL         0.0000
@<TRIPOS>BOND
     1    1    2 ar
     2    1    5 ar
     3    2    7 ar
     4    3    4 ar
     5    3    8 ar
     6    4   10 ar
     7    5   12 ar
     8    6    7 ar
     9    6   12 ar
    10    7   13 1
    11    8    9 ar
    12    8   14 1
    13    9   11 ar
    14    9   15 1
    15   10   11 ar
    16   10   19 1
    17   11   20 1
    18   12   21 1
    19   13   14 2
    20   15   17 1
    21   15   18 2
    22   16   19 1
    23   16   20 1
    24    1   22 1
    25    2   23 1
    26    3   24 1
    27    4   25 1
    28    5   26 1
    29    6   27 1
    30   13   28 1
    31   14   29 1
    32   16   30 1
    33   16   31 1
