AVX40871_0
  -OEChem-04011315023D

 40 43  0     0  0  0  0  0  0999 V2000
    3.8153    1.6013   -2.8452 C   0  0  0  0  0  0  0  0  0  0  0  0
    1.4668   -1.3393    0.8039 C   0  0  0  0  0  0  0  0  0  0  0  0
    1.7260   -2.6160    1.3034 C   0  0  0  0  0  0  0  0  0  0  0  0
    3.4624    0.7658   -3.9049 C   0  0  0  0  0  0  0  0  0  0  0  0
    1.4638    0.0230   -2.7201 C   0  0  0  0  0  0  0  0  0  0  0  0
   -0.8570   -1.9272    0.4872 C   0  0  0  0  0  0  0  0  0  0  0  0
    2.9827    1.6305   -1.7413 C   0  0  0  0  0  0  0  0  0  0  0  0
    0.1764   -0.9939    0.4014 C   0  0  0  0  0  0  0  0  0  0  0  0
    1.8122    0.8517   -1.6668 C   0  0  0  0  0  0  0  0  0  0  0  0
    0.6905   -3.5458    1.4020 C   0  0  0  0  0  0  0  0  0  0  0  0
   -0.5959   -3.2085    0.9738 C   0  0  0  0  0  0  0  0  0  0  0  0
    2.2973   -0.0162   -3.8430 C   0  0  0  0  0  0  0  0  0  0  0  0
    1.8789    1.9981    0.3124 C   0  0  0  0  0  0  0  0  0  0  0  0
    1.6129    2.4887    1.5300 C   0  0  0  0  0  0  0  0  0  0  0  0
   -2.2200   -1.5604    0.0514 C   0  0  0  0  0  0  0  0  0  0  0  0
    3.1204    2.4308   -0.4748 C   0  0  0  0  0  0  0  0  0  0  0  0
   -0.1669   -5.5098    2.2929 C   0  0  0  0  0  0  0  0  0  0  0  0
   -1.2069   -5.4367    1.1919 C   0  0  0  0  0  0  0  0  0  0  0  0
   -0.0697    0.3909   -0.1241 C   0  0  0  0  0  0  0  0  0  0  0  0
    1.1633    1.0739   -0.4479 N   0  0  0  0  0  0  0  0  0  0  0  0
   -3.0242   -1.0495    0.9141 O   0  5  0  0  0  0  0  0  0  0  0  0
   -2.5496   -1.7666   -1.1737 O   0  0  0  0  0  0  0  0  0  0  0  0
    1.0026   -4.7760    1.9192 O   0  0  0  0  0  0  0  0  0  0  0  0
   -1.6467   -4.0874    1.0146 O   0  0  0  0  0  0  0  0  0  0  0  0
    1.8896   -1.0380   -5.1699 Cl  0  0  0  0  0  0  0  0  0  0  0  0
    4.7140    2.2061   -2.8899 H   0  0  0  0  0  0  0  0  0  0  0  0
    2.2777   -0.6186    0.7366 H   0  0  0  0  0  0  0  0  0  0  0  0
    2.7320   -2.8739    1.6226 H   0  0  0  0  0  0  0  0  0  0  0  0
    4.1045    0.7288   -4.7821 H   0  0  0  0  0  0  0  0  0  0  0  0
    0.5643   -0.5838   -2.6781 H   0  0  0  0  0  0  0  0  0  0  0  0
    0.7313    2.1706    2.0696 H   0  0  0  0  0  0  0  0  0  0  0  0
    2.2763    3.2091    1.9889 H   0  0  0  0  0  0  0  0  0  0  0  0
    4.0382    2.1563    0.0545 H   0  0  0  0  0  0  0  0  0  0  0  0
    3.0941    3.5028   -0.6939 H   0  0  0  0  0  0  0  0  0  0  0  0
   -0.5488   -5.1034    3.2377 H   0  0  0  0  0  0  0  0  0  0  0  0
    0.1327   -6.5484    2.4637 H   0  0  0  0  0  0  0  0  0  0  0  0
   -0.8103   -5.8037    0.2372 H   0  0  0  0  0  0  0  0  0  0  0  0
   -2.0813   -6.0405    1.4538 H   0  0  0  0  0  0  0  0  0  0  0  0
   -0.6841    0.3564   -1.0304 H   0  0  0  0  0  0  0  0  0  0  0  0
   -0.6070    1.0001    0.6102 H   0  0  0  0  0  0  0  0  0  0  0  0
  1  4  1  0  0  0  0
  1  7  2  0  0  0  0
  2  3  1  0  0  0  0
  2  8  2  0  0  0  0
  3 10  2  0  0  0  0
  4 12  2  0  0  0  0
  5  9  2  0  0  0  0
  5 12  1  0  0  0  0
  6  8  1  0  0  0  0
  6 11  2  0  0  0  0
  6 15  1  0  0  0  0
  7  9  1  0  0  0  0
  7 16  1  0  0  0  0
  8 19  1  0  0  0  0
  9 20  1  0  0  0  0
 10 11  1  0  0  0  0
 10 23  1  0  0  0  0
 11 24  1  0  0  0  0
 12 25  1  0  0  0  0
 13 14  2  0  0  0  0
 13 16  1  0  0  0  0
 13 20  1  0  0  0  0
 15 21  1  0  0  0  0
 15 22  2  0  0  0  0
 17 18  1  0  0  0  0
 17 23  1  0  0  0  0
 18 24  1  0  0  0  0
 19 20  1  0  0  0  0
  1 26  1  0  0  0  0
  2 27  1  0  0  0  0
  3 28  1  0  0  0  0
  4 29  1  0  0  0  0
  5 30  1  0  0  0  0
 14 31  1  0  0  0  0
 14 32  1  0  0  0  0
 16 33  1  0  0  0  0
 16 34  1  0  0  0  0
 17 35  1  0  0  0  0
 17 36  1  0  0  0  0
 18 37  1  0  0  0  0
 18 38  1  0  0  0  0
 19 39  1  0  0  0  0
 19 40  1  0  0  0  0
M  CHG  1  21  -1
M  END
$$$$
