@<TRIPOS>MOLECULE
AVX40944_0
   58    60     0     0     0
SMALL
NO_CHARGES

@<TRIPOS>ATOM
      1 C1          6.7168   -3.8253   -1.6489 C.ar      1 MOL         0.0000
      2 C2          6.6626   -2.7305   -2.5114 C.ar      1 MOL         0.0000
      3 C3          5.5437   -4.4892   -1.2901 C.ar      1 MOL         0.0000
      4 C4          6.7212    7.2090   -3.0972 C.ar      1 MOL         0.0000
      5 C5          6.9195    7.2624   -1.7175 C.ar      1 MOL         0.0000
      6 C6          5.4354   -2.2995   -3.0151 C.ar      1 MOL         0.0000
      7 C7          4.3164   -4.0582   -1.7937 C.ar      1 MOL         0.0000
      8 C8          6.1834    6.0617   -3.6806 C.ar      1 MOL         0.0000
      9 C9          2.0317    0.2124   -5.3271 C.ar      1 MOL         0.0000
     10 C10         2.6455    1.1640   -6.1415 C.ar      1 MOL         0.0000
     11 C11         6.0425    5.0212   -1.5047 C.ar      1 MOL         0.0000
     12 C12         6.5802    6.1685   -0.9213 C.ar      1 MOL         0.0000
     13 C13         2.5181    1.5622   -3.3832 C.ar      1 MOL         0.0000
     14 C14         4.2622   -2.9633   -2.6562 C.ar      1 MOL         0.0000
     15 C15         5.8441    4.9679   -2.8844 C.ar      1 MOL         0.0000
     16 C16         1.9679    0.4115   -3.9479 C.ar      1 MOL         0.0000
     17 C17         3.1321    2.5138   -4.1977 C.ar      1 MOL         0.0000
     18 C18         3.1957    2.3146   -5.5768 C.ar      1 MOL         0.0000
     19 C19         6.7896    6.2242    0.5344 C.2       1 MOL         0.0000
     20 C20         2.4498    1.7713   -1.9227 C.2       1 MOL         0.0000
     21 C21         1.6480   -2.0891   -1.1099 C.3       1 MOL         0.0000
     22 C22         3.8101    2.9462   -7.7858 C.3       1 MOL         0.0000
     23 C23         5.2625    3.7263   -3.5155 C.3       1 MOL         0.0000
     24 C24         3.7255    3.7516   -3.6028 C.3       1 MOL         0.0000
     25 C25         2.9418   -2.5001   -3.1974 C.3       1 MOL         0.0000
     26 C26         1.3014   -0.6294   -3.0975 C.3       1 MOL         0.0000
     27 N1          2.2767   -1.4725   -2.3267 N.4       1 MOL         0.0000
     28 O1          6.4675    5.2006    1.2466 O.co2     1 MOL         0.0000
     29 O2          1.4335    2.3912   -1.4375 O.co2     1 MOL         0.0000
     30 O3          7.2877    7.2949    1.0485 O.co2     1 MOL         0.0000
     31 O4          3.4092    1.3259   -1.1924 O.co2     1 MOL         0.0000
     32 O5          3.7913    3.2327   -6.3889 O.3       1 MOL         0.0000
     33 H1          7.6726   -4.1617   -1.2579 H         1 MOL         0.0000
     34 H2          7.5761   -2.2141   -2.7918 H         1 MOL         0.0000
     35 H3          5.5856   -5.3424   -0.6194 H         1 MOL         0.0000
     36 H4          6.9853    8.0609   -3.7168 H         1 MOL         0.0000
     37 H5          7.3388    8.1613   -1.2730 H         1 MOL         0.0000
     38 H6          5.4027   -1.4454   -3.6864 H         1 MOL         0.0000
     39 H7          3.4076   -4.5815   -1.5085 H         1 MOL         0.0000
     40 H8          6.0322    6.0290   -4.7562 H         1 MOL         0.0000
     41 H9          1.6060   -0.6807   -5.7769 H         1 MOL         0.0000
     42 H10         2.6917    1.0026   -7.2151 H         1 MOL         0.0000
     43 H11         5.7774    4.1676   -0.8852 H         1 MOL         0.0000
     44 H12         0.8586   -2.7634   -1.4472 H         1 MOL         0.0000
     45 H13         2.4259   -2.6337   -0.5714 H         1 MOL         0.0000
     46 H14         1.2398   -1.2816   -0.4992 H         1 MOL         0.0000
     47 H15         4.3132    3.7572   -8.3180 H         1 MOL         0.0000
     48 H16         2.7855    2.8374   -8.1501 H         1 MOL         0.0000
     49 H17         4.3541    2.0131   -7.9500 H         1 MOL         0.0000
     50 H18         5.6842    3.6242   -4.5240 H         1 MOL         0.0000
     51 H19         5.5955    2.8374   -2.9646 H         1 MOL         0.0000
     52 H20         3.4261    4.6191   -4.2130 H         1 MOL         0.0000
     53 H21         3.2982    3.9431   -2.6052 H         1 MOL         0.0000
     54 H22         3.0569   -2.0463   -4.1876 H         1 MOL         0.0000
     55 H23         2.2386   -3.3345   -3.2924 H         1 MOL         0.0000
     56 H24         0.6322   -0.1705   -2.3618 H         1 MOL         0.0000
     57 H25         0.7053   -1.3164   -3.7079 H         1 MOL         0.0000
     58 H26         3.0171   -0.8411   -1.9922 H         1 MOL         0.0000
@<TRIPOS>BOND
     1    1    2 ar
     2    1    3 ar
     3    2    6 ar
     4    3    7 ar
     5    4    5 ar
     6    4    8 ar
     7    5   12 ar
     8    6   14 ar
     9    7   14 ar
    10    8   15 ar
    11    9   10 ar
    12    9   16 ar
    13   10   18 ar
    14   11   12 ar
    15   11   15 ar
    16   12   19 1
    17   13   16 ar
    18   13   17 ar
    19   13   20 1
    20   14   25 1
    21   15   23 1
    22   16   26 1
    23   17   18 ar
    24   17   24 1
    25   18   32 1
    26   19   28 1
    27   19   30 2
    28   20   29 1
    29   20   31 2
    30   21   27 1
    31   22   32 1
    32   23   24 1
    33   25   27 1
    34   26   27 1
    35    1   33 1
    36    2   34 1
    37    3   35 1
    38    4   36 1
    39    5   37 1
    40    6   38 1
    41    7   39 1
    42    8   40 1
    43    9   41 1
    44   10   42 1
    45   11   43 1
    46   21   44 1
    47   21   45 1
    48   21   46 1
    49   22   47 1
    50   22   48 1
    51   22   49 1
    52   23   50 1
    53   23   51 1
    54   24   52 1
    55   24   53 1
    56   25   54 1
    57   25   55 1
    58   26   56 1
    59   26   57 1
    60   27   58 1
