@<TRIPOS>MOLECULE
AVX40909_0
   43    45     0     0     0
SMALL
NO_CHARGES

@<TRIPOS>ATOM
      1 C1          0.5105   -1.1597   -3.0832 C.ar      1 MOL         0.0000
      2 C2          0.2434    2.2636    0.9373 C.ar      1 MOL         0.0000
      3 C3          0.6999   -1.7604   -4.3277 C.ar      1 MOL         0.0000
      4 C4          0.0571    2.8943    2.1698 C.ar      1 MOL         0.0000
      5 C5         -1.7997   -1.8670   -3.0935 C.ar      1 MOL         0.0000
      6 C6         -1.1536    0.3951    1.6340 C.ar      1 MOL         0.0000
      7 C7         -0.7394   -1.2131   -2.4660 C.ar      1 MOL         0.0000
      8 C8         -0.3586    1.0212    0.6709 C.ar      1 MOL         0.0000
      9 C9         -1.6102   -2.4676   -4.3381 C.ar      1 MOL         0.0000
     10 C10        -0.3604   -2.4143   -4.9552 C.ar      1 MOL         0.0000
     11 C11        -0.7324    2.2549    3.1034 C.ar      1 MOL         0.0000
     12 C12        -1.3216    1.0389    2.8426 C.ar      1 MOL         0.0000
     13 C13        -0.9396   -0.5798   -1.1506 C.2       1 MOL         0.0000
     14 C14        -0.1495    0.3827   -0.6196 C.2       1 MOL         0.0000
     15 C15        -2.7441   -3.1540   -4.9836 C.2       1 MOL         0.0000
     16 C16        -1.8645    1.6511    4.8457 C.3       1 MOL         0.0000
     17 C17         1.3416   -2.8477   -6.7611 C.3       1 MOL         0.0000
     18 C18        -1.0634   -2.4281   -7.3744 C.3       1 MOL         0.0000
     19 C19        -0.3845   -4.5893   -6.3497 C.3       1 MOL         0.0000
     20 C20        -0.1310   -3.0474   -6.2887 C.3       1 MOL         0.0000
     21 O1         -3.5121   -2.4777   -5.7637 O.co2     1 MOL         0.0000
     22 O2         -2.9260   -4.4050   -4.7438 O.co2     1 MOL         0.0000
     23 O3         -1.0254    2.7145    4.3504 O.3       1 MOL         0.0000
     24 O4         -2.0570    0.5848    3.8938 O.3       1 MOL         0.0000
     25 H1          1.3471   -0.6542   -2.6068 H         1 MOL         0.0000
     26 H2          0.8620    2.7497    0.1857 H         1 MOL         0.0000
     27 H3          1.6779   -1.7129   -4.7994 H         1 MOL         0.0000
     28 H4          0.5199    3.8519    2.3795 H         1 MOL         0.0000
     29 H5         -2.7765   -1.9109   -2.6157 H         1 MOL         0.0000
     30 H6         -1.6265   -0.5635    1.4467 H         1 MOL         0.0000
     31 H7         -1.8187   -0.9167   -0.6065 H         1 MOL         0.0000
     32 H8          0.7038    0.7473   -1.2018 H         1 MOL         0.0000
     33 H9         -1.4068    1.2354    5.7508 H         1 MOL         0.0000
     34 H10        -2.8434    2.0694    5.1064 H         1 MOL         0.0000
     35 H11         1.5369   -3.3036   -7.7388 H         1 MOL         0.0000
     36 H12         1.5957   -1.7855   -6.8470 H         1 MOL         0.0000
     37 H13         2.0360   -3.2947   -6.0398 H         1 MOL         0.0000
     38 H14        -0.8998   -2.8885   -8.3548 H         1 MOL         0.0000
     39 H15        -2.1268   -2.5499   -7.1370 H         1 MOL         0.0000
     40 H16        -0.8655   -1.3547   -7.4778 H         1 MOL         0.0000
     41 H17        -0.2031   -5.0068   -7.3475 H         1 MOL         0.0000
     42 H18         0.2744   -5.1215   -5.6538 H         1 MOL         0.0000
     43 H19        -1.4221   -4.8252   -6.0860 H         1 MOL         0.0000
@<TRIPOS>BOND
     1    1    3 ar
     2    1    7 ar
     3    2    4 ar
     4    2    8 ar
     5    3   10 ar
     6    4   11 ar
     7    5    7 ar
     8    5    9 ar
     9    6    8 ar
    10    6   12 ar
    11    7   13 1
    12    8   14 1
    13    9   10 ar
    14    9   15 1
    15   10   20 1
    16   11   12 ar
    17   11   23 1
    18   12   24 1
    19   13   14 2
    20   15   21 1
    21   15   22 2
    22   16   23 1
    23   16   24 1
    24   17   20 1
    25   18   20 1
    26   19   20 1
    27    1   25 1
    28    2   26 1
    29    3   27 1
    30    4   28 1
    31    5   29 1
    32    6   30 1
    33   13   31 1
    34   14   32 1
    35   16   33 1
    36   16   34 1
    37   17   35 1
    38   17   36 1
    39   17   37 1
    40   18   38 1
    41   18   39 1
    42   18   40 1
    43   19   41 1
    44   19   42 1
    45   19   43 1
