AVX40916_2
  -OEChem-04011315033D

 46 47  0     1  0  0  0  0  0999 V2000
    4.7660   -0.0773    4.8517 C   0  0  0  0  0  0  0  0  0  0  0  0
    6.1176   -0.3999    4.9728 C   0  0  0  0  0  0  0  0  0  0  0  0
    4.5105   -1.7821    3.1590 C   0  0  0  0  0  0  0  0  0  0  0  0
    3.9624   -0.7684    3.9449 C   0  0  0  0  0  0  0  0  0  0  0  0
    6.6657   -1.4137    4.1869 C   0  0  0  0  0  0  0  0  0  0  0  0
    5.8622   -2.1048    3.2800 C   0  0  0  0  0  0  0  0  0  0  0  0
    3.6637   -2.5145    2.1964 C   0  0  0  0  0  0  0  0  0  0  0  0
    7.4814   -3.9710    0.5886 C   0  0  0  0  0  0  0  0  0  0  0  0
    1.3982    2.7165    1.0084 C   0  0  0  0  0  0  0  0  0  0  0  0
    2.8607    2.3502    1.2101 C   0  0  0  0  0  0  0  0  0  0  0  0
    0.5108    1.4837    1.1190 C   0  0  0  0  0  0  0  0  0  0  0  0
    3.0735    1.6268    2.5291 C   0  0  0  0  0  0  0  0  0  0  0  0
    0.7142    0.7371    2.4436 C   0  0  1  0  0  0  0  0  0  0  0  0
   -0.1387   -0.5299    2.4591 C   0  0  0  0  0  0  0  0  0  0  0  0
    8.7367   -0.9634    5.2657 C   0  0  0  0  0  0  0  0  0  0  0  0
    2.5122   -0.3996    3.8365 C   0  0  0  0  0  0  0  0  0  0  0  0
    6.9482   -2.7122    1.2534 C   0  0  0  0  0  0  0  0  0  0  0  0
    2.1946    0.3922    2.5909 N   0  3  2  0  0  0  0  0  0  0  0  0
    3.0574   -3.5762    2.5941 O   0  5  0  0  0  0  0  0  0  0  0  0
    6.6258   -4.8811    0.3999 O   0  5  0  0  0  0  0  0  0  0  0  0
    3.5647   -2.0632    0.9966 O   0  0  0  0  0  0  0  0  0  0  0  0
    8.7111   -3.9460    0.3022 O   0  0  0  0  0  0  0  0  0  0  0  0
    7.9873   -1.7182    4.3156 O   0  0  0  0  0  0  0  0  0  0  0  0
    6.4066   -3.0946    2.5152 O   0  0  0  0  0  0  0  0  0  0  0  0
    4.3482    0.7140    5.4686 H   0  0  0  0  0  0  0  0  0  0  0  0
    6.7382    0.1420    5.6812 H   0  0  0  0  0  0  0  0  0  0  0  0
    1.0954    3.4564    1.7594 H   0  0  0  0  0  0  0  0  0  0  0  0
    1.2641    3.1832    0.0262 H   0  0  0  0  0  0  0  0  0  0  0  0
    3.1987    1.7156    0.3814 H   0  0  0  0  0  0  0  0  0  0  0  0
    3.4739    3.2579    1.1864 H   0  0  0  0  0  0  0  0  0  0  0  0
   -0.5381    1.7897    1.0245 H   0  0  0  0  0  0  0  0  0  0  0  0
    0.7199    0.8130    0.2752 H   0  0  0  0  0  0  0  0  0  0  0  0
    4.1136    1.2954    2.6155 H   0  0  0  0  0  0  0  0  0  0  0  0
    2.8179    2.2577    3.3879 H   0  0  0  0  0  0  0  0  0  0  0  0
    0.4515    1.3808    3.2920 H   0  0  0  0  0  0  0  0  0  0  0  0
    0.1270   -1.1638    1.6148 H   0  0  0  0  0  0  0  0  0  0  0  0
   -1.1926   -0.2660    2.3892 H   0  0  0  0  0  0  0  0  0  0  0  0
    0.0315   -1.0779    3.3843 H   0  0  0  0  0  0  0  0  0  0  0  0
    9.7742   -1.3067    5.2682 H   0  0  0  0  0  0  0  0  0  0  0  0
    8.2981   -1.0880    6.2589 H   0  0  0  0  0  0  0  0  0  0  0  0
    8.7053    0.0922    4.9855 H   0  0  0  0  0  0  0  0  0  0  0  0
    1.8775   -1.2919    3.8122 H   0  0  0  0  0  0  0  0  0  0  0  0
    2.1950    0.2124    4.6877 H   0  0  0  0  0  0  0  0  0  0  0  0
    6.1591   -2.2651    0.6411 H   0  0  0  0  0  0  0  0  0  0  0  0
    7.7419   -1.9761    1.4130 H   0  0  0  0  0  0  0  0  0  0  0  0
    2.4541   -0.2025    1.7917 H   0  0  0  0  0  0  0  0  0  0  0  0
  1  2  2  0  0  0  0
  1  4  1  0  0  0  0
  2  5  1  0  0  0  0
  3  4  2  0  0  0  0
  3  6  1  0  0  0  0
  3  7  1  0  0  0  0
  4 16  1  0  0  0  0
  5  6  2  0  0  0  0
  5 23  1  0  0  0  0
  6 24  1  0  0  0  0
  7 19  1  0  0  0  0
  7 21  2  0  0  0  0
  8 17  1  0  0  0  0
  8 20  1  0  0  0  0
  8 22  2  0  0  0  0
  9 10  1  0  0  0  0
  9 11  1  0  0  0  0
 10 12  1  0  0  0  0
 11 13  1  0  0  0  0
 12 18  1  0  0  0  0
 13 14  1  0  0  0  0
 13 18  1  0  0  0  0
 15 23  1  0  0  0  0
 16 18  1  0  0  0  0
 17 24  1  0  0  0  0
  1 25  1  0  0  0  0
  2 26  1  0  0  0  0
  9 27  1  0  0  0  0
  9 28  1  0  0  0  0
 10 29  1  0  0  0  0
 10 30  1  0  0  0  0
 11 31  1  0  0  0  0
 11 32  1  0  0  0  0
 12 33  1  0  0  0  0
 12 34  1  0  0  0  0
 13 35  1  0  0  0  0
 14 36  1  0  0  0  0
 14 37  1  0  0  0  0
 14 38  1  0  0  0  0
 15 39  1  0  0  0  0
 15 40  1  0  0  0  0
 15 41  1  0  0  0  0
 16 42  1  0  0  0  0
 16 43  1  0  0  0  0
 17 44  1  0  0  0  0
 17 45  1  0  0  0  0
 18 46  1  0  0  0  0
M  CHG  3  18   1  19  -1  20  -1
M  END
$$$$
