@<TRIPOS>MOLECULE
AVX40869_0
   38    41     0     0     0
SMALL
NO_CHARGES

@<TRIPOS>ATOM
      1 C1         -0.0958    5.4497    0.2789 C.ar      1 MOL         0.0000
      2 C2          3.1040    5.8302   -2.3426 C.ar      1 MOL         0.0000
      3 C3          4.4712    6.1128   -2.3920 C.ar      1 MOL         0.0000
      4 C4         -0.8517    5.5565    1.4488 C.ar      1 MOL         0.0000
      5 C5          5.0209    3.8335   -1.7285 C.ar      1 MOL         0.0000
      6 C6         -1.9296    4.3172   -0.8536 C.ar      1 MOL         0.0000
      7 C7          3.6657    3.5635   -1.6821 C.ar      1 MOL         0.0000
      8 C8         -0.6317    4.8337   -0.8657 C.ar      1 MOL         0.0000
      9 C9          2.7260    4.5482   -1.9849 C.ar      1 MOL         0.0000
     10 C10         5.4218    5.1228   -2.0876 C.ar      1 MOL         0.0000
     11 C11        -2.1304    5.0383    1.4345 C.ar      1 MOL         0.0000
     12 C12        -2.6550    4.4354    0.3141 C.ar      1 MOL         0.0000
     13 C13         1.4901    2.6614   -1.4749 C.2       1 MOL         0.0000
     14 C14        -2.5139    3.6687   -2.0385 C.2       1 MOL         0.0000
     15 C15         2.9684    2.2879   -1.3337 C.3       1 MOL         0.0000
     16 C16        -4.1448    4.3878    1.8825 C.3       1 MOL         0.0000
     17 C17         0.2199    4.7432   -2.0990 C.3       1 MOL         0.0000
     18 N1          1.4392    4.0084   -1.8607 N.am      1 MOL         0.0000
     19 N2          6.8310    5.4446   -2.1461 N.4       1 MOL         0.0000
     20 O1         -3.1602    4.3922   -2.8857 O.co2     1 MOL         0.0000
     21 O2          0.5589    1.8950   -1.2771 O.2       1 MOL         0.0000
     22 O3         -2.3601    2.3989   -2.1895 O.co2     1 MOL         0.0000
     23 O4         -3.0087    5.0510    2.4738 O.3       1 MOL         0.0000
     24 O5         -3.9273    3.9949    0.5118 O.3       1 MOL         0.0000
     25 H1          0.9153    5.8497    0.2611 H         1 MOL         0.0000
     26 H2          2.3778    6.5995   -2.5797 H         1 MOL         0.0000
     27 H3          4.7955    7.1129   -2.6707 H         1 MOL         0.0000
     28 H4         -0.4423    6.0307    2.3335 H         1 MOL         0.0000
     29 H5          5.7481    3.0634   -1.4921 H         1 MOL         0.0000
     30 H6          3.2131    1.4922   -2.0421 H         1 MOL         0.0000
     31 H7          3.1727    1.9895   -0.3021 H         1 MOL         0.0000
     32 H8         -4.3742    3.4925    2.4718 H         1 MOL         0.0000
     33 H9         -5.0058    5.0650    1.9210 H         1 MOL         0.0000
     34 H10        -0.3235    4.2420   -2.9074 H         1 MOL         0.0000
     35 H11         0.4947    5.7396   -2.4607 H         1 MOL         0.0000
     36 H12         7.3407    4.7070   -2.6508 H         1 MOL         0.0000
     37 H13         6.9898    6.3384   -2.6308 H         1 MOL         0.0000
     38 H14         7.2185    5.5213   -1.1960 H         1 MOL         0.0000
@<TRIPOS>BOND
     1    1    4 ar
     2    1    8 ar
     3    2    3 ar
     4    2    9 ar
     5    3   10 ar
     6    4   11 ar
     7    5    7 ar
     8    5   10 ar
     9    6    8 ar
    10    6   12 ar
    11    6   14 1
    12    7    9 ar
    13    7   15 1
    14    8   17 1
    15    9   18 1
    16   10   19 1
    17   11   12 ar
    18   11   23 1
    19   12   24 1
    20   13   15 1
    21   13   18 am
    22   13   21 2
    23   14   20 1
    24   14   22 2
    25   16   23 1
    26   16   24 1
    27   17   18 1
    28    1   25 1
    29    2   26 1
    30    3   27 1
    31    4   28 1
    32    5   29 1
    33   15   30 1
    34   15   31 1
    35   16   32 1
    36   16   33 1
    37   17   34 1
    38   17   35 1
    39   19   36 1
    40   19   37 1
    41   19   38 1
