@<TRIPOS>MOLECULE
AVX40868_0
   35    38     0     0     0
SMALL
NO_CHARGES

@<TRIPOS>ATOM
      1 C1         -0.0954    5.4501    0.2788 C.ar      1 MOL         0.0000
      2 C2          3.1040    5.8301   -2.3431 C.ar      1 MOL         0.0000
      3 C3         -0.8512    5.5571    1.4488 C.ar      1 MOL         0.0000
      4 C4          4.4712    6.1126   -2.3928 C.ar      1 MOL         0.0000
      5 C5          5.0209    3.8334   -1.7288 C.ar      1 MOL         0.0000
      6 C6         -1.9294    4.3174   -0.8533 C.ar      1 MOL         0.0000
      7 C7          3.6657    3.5634   -1.6823 C.ar      1 MOL         0.0000
      8 C8         -0.6314    4.8339   -0.8656 C.ar      1 MOL         0.0000
      9 C9          2.7261    4.5481   -1.9852 C.ar      1 MOL         0.0000
     10 C10        -2.1299    5.0390    1.4347 C.ar      1 MOL         0.0000
     11 C11        -2.6546    4.4359    0.3145 C.ar      1 MOL         0.0000
     12 C12         5.4219    5.1227   -2.0883 C.ar      1 MOL         0.0000
     13 C13         1.4901    2.6615   -1.4746 C.2       1 MOL         0.0000
     14 C14        -2.5138    3.6688   -2.0380 C.2       1 MOL         0.0000
     15 C15         2.9684    2.2879   -1.3335 C.3       1 MOL         0.0000
     16 C16        -4.1443    4.3886    1.8831 C.3       1 MOL         0.0000
     17 C17         0.2200    4.7432   -2.0989 C.3       1 MOL         0.0000
     18 N1          1.4392    4.0084   -1.8607 N.am      1 MOL         0.0000
     19 O1         -3.1602    4.3922   -2.8852 O.co2     1 MOL         0.0000
     20 O2          0.5587    1.8950   -1.2775 O.2       1 MOL         0.0000
     21 O3         -2.3601    2.3990   -2.1887 O.co2     1 MOL         0.0000
     22 O4         -3.0081    5.0519    2.4741 O.3       1 MOL         0.0000
     23 O5         -3.9269    3.9955    0.5125 O.3       1 MOL         0.0000
     24 Cl1         7.1004    5.5049   -2.1599 Cl        1 MOL         0.0000
     25 H1          0.9157    5.8500    0.2608 H         1 MOL         0.0000
     26 H2          2.3777    6.5993   -2.5798 H         1 MOL         0.0000
     27 H3         -0.4417    6.0315    2.3333 H         1 MOL         0.0000
     28 H4          4.7905    7.1144   -2.6719 H         1 MOL         0.0000
     29 H5          5.7448    3.0604   -1.4913 H         1 MOL         0.0000
     30 H6          3.2132    1.4918   -2.0412 H         1 MOL         0.0000
     31 H7          3.1726    1.9901   -0.3019 H         1 MOL         0.0000
     32 H8         -4.3737    3.4934    2.4725 H         1 MOL         0.0000
     33 H9         -5.0052    5.0658    1.9215 H         1 MOL         0.0000
     34 H10        -0.3235    4.2418   -2.9073 H         1 MOL         0.0000
     35 H11         0.4948    5.7395   -2.4609 H         1 MOL         0.0000
@<TRIPOS>BOND
     1    1    3 ar
     2    1    8 ar
     3    2    4 ar
     4    2    9 ar
     5    3   10 ar
     6    4   12 ar
     7    5    7 ar
     8    5   12 ar
     9    6    8 ar
    10    6   11 ar
    11    6   14 1
    12    7    9 ar
    13    7   15 1
    14    8   17 1
    15    9   18 1
    16   10   11 ar
    17   10   22 1
    18   11   23 1
    19   12   24 1
    20   13   15 1
    21   13   18 am
    22   13   20 2
    23   14   19 1
    24   14   21 2
    25   16   22 1
    26   16   23 1
    27   17   18 1
    28    1   25 1
    29    2   26 1
    30    3   27 1
    31    4   28 1
    32    5   29 1
    33   15   30 1
    34   15   31 1
    35   16   32 1
    36   16   33 1
    37   17   34 1
    38   17   35 1
