AVX40872_0
  -OEChem-04011315023D

 41 44  0     0  0  0  0  0  0999 V2000
    1.1265   -1.1707    1.4077 C   0  0  0  0  0  0  0  0  0  0  0  0
    1.3714    2.9415    0.8641 C   0  0  0  0  0  0  0  0  0  0  0  0
    2.1683    4.0548    1.1418 C   0  0  0  0  0  0  0  0  0  0  0  0
    1.3727   -2.4440    1.9219 C   0  0  0  0  0  0  0  0  0  0  0  0
    3.6610    3.5145   -0.7068 C   0  0  0  0  0  0  0  0  0  0  0  0
   -0.5232   -2.0913   -0.1013 C   0  0  0  0  0  0  0  0  0  0  0  0
    2.8664    2.4150   -0.9737 C   0  0  0  0  0  0  0  0  0  0  0  0
    0.1764   -0.9939    0.4014 C   0  0  0  0  0  0  0  0  0  0  0  0
    1.7411    2.1366   -0.1988 C   0  0  0  0  0  0  0  0  0  0  0  0
    3.3036    4.3391    0.3629 C   0  0  0  0  0  0  0  0  0  0  0  0
    0.6642   -3.5402    1.4290 C   0  0  0  0  0  0  0  0  0  0  0  0
   -0.2678   -3.3669    0.4027 C   0  0  0  0  0  0  0  0  0  0  0  0
    1.8196    0.4570   -1.7864 C   0  0  0  0  0  0  0  0  0  0  0  0
   -1.5217   -1.9011   -1.1733 C   0  0  0  0  0  0  0  0  0  0  0  0
    3.0144    1.3800   -2.0422 C   0  0  0  0  0  0  0  0  0  0  0  0
   -0.0671   -5.7300    1.6658 C   0  0  0  0  0  0  0  0  0  0  0  0
   -0.3955   -5.6740    0.1866 C   0  0  0  0  0  0  0  0  0  0  0  0
   -0.0697    0.3909   -0.1241 C   0  0  0  0  0  0  0  0  0  0  0  0
    1.1249    0.9760   -0.6847 N   0  0  0  0  0  0  0  0  0  0  0  0
    4.1108    5.4984    0.6746 N   0  3  0  0  0  0  0  0  0  0  0  0
   -2.7411   -1.6657   -0.8422 O   0  5  0  0  0  0  0  0  0  0  0  0
    1.5582   -0.5383   -2.4457 O   0  0  0  0  0  0  0  0  0  0  0  0
   -1.1330   -1.9787   -2.3959 O   0  0  0  0  0  0  0  0  0  0  0  0
    0.9354   -4.7619    1.9877 O   0  0  0  0  0  0  0  0  0  0  0  0
   -0.9711   -4.4077   -0.1455 O   0  0  0  0  0  0  0  0  0  0  0  0
    1.6779   -0.3209    1.8018 H   0  0  0  0  0  0  0  0  0  0  0  0
    0.4972    2.7302    1.4695 H   0  0  0  0  0  0  0  0  0  0  0  0
    1.8998    4.7044    1.9719 H   0  0  0  0  0  0  0  0  0  0  0  0
    2.1082   -2.5715    2.7114 H   0  0  0  0  0  0  0  0  0  0  0  0
    4.5357    3.7268   -1.3132 H   0  0  0  0  0  0  0  0  0  0  0  0
    2.9290    1.8199   -3.0393 H   0  0  0  0  0  0  0  0  0  0  0  0
    3.9433    0.8155   -1.9261 H   0  0  0  0  0  0  0  0  0  0  0  0
   -0.9523   -5.5369    2.2844 H   0  0  0  0  0  0  0  0  0  0  0  0
    0.3263   -6.7165    1.9303 H   0  0  0  0  0  0  0  0  0  0  0  0
    0.4984   -5.8249   -0.4312 H   0  0  0  0  0  0  0  0  0  0  0  0
   -1.1240   -6.4490   -0.0710 H   0  0  0  0  0  0  0  0  0  0  0  0
   -0.8370    0.3765   -0.9058 H   0  0  0  0  0  0  0  0  0  0  0  0
   -0.4268    1.0549    0.6700 H   0  0  0  0  0  0  0  0  0  0  0  0
    4.3245    6.0211   -0.1855 H   0  0  0  0  0  0  0  0  0  0  0  0
    3.6225    6.1292    1.3246 H   0  0  0  0  0  0  0  0  0  0  0  0
    4.9959    5.2089    1.1123 H   0  0  0  0  0  0  0  0  0  0  0  0
  1  4  1  0  0  0  0
  1  8  2  0  0  0  0
  2  3  1  0  0  0  0
  2  9  2  0  0  0  0
  3 10  2  0  0  0  0
  4 11  2  0  0  0  0
  5  7  2  0  0  0  0
  5 10  1  0  0  0  0
  6  8  1  0  0  0  0
  6 12  2  0  0  0  0
  6 14  1  0  0  0  0
  7  9  1  0  0  0  0
  7 15  1  0  0  0  0
  8 18  1  0  0  0  0
  9 19  1  0  0  0  0
 10 20  1  0  0  0  0
 11 12  1  0  0  0  0
 11 24  1  0  0  0  0
 12 25  1  0  0  0  0
 13 15  1  0  0  0  0
 13 19  1  0  0  0  0
 13 22  2  0  0  0  0
 14 21  1  0  0  0  0
 14 23  2  0  0  0  0
 16 17  1  0  0  0  0
 16 24  1  0  0  0  0
 17 25  1  0  0  0  0
 18 19  1  0  0  0  0
  1 26  1  0  0  0  0
  2 27  1  0  0  0  0
  3 28  1  0  0  0  0
  4 29  1  0  0  0  0
  5 30  1  0  0  0  0
 15 31  1  0  0  0  0
 15 32  1  0  0  0  0
 16 33  1  0  0  0  0
 16 34  1  0  0  0  0
 17 35  1  0  0  0  0
 17 36  1  0  0  0  0
 18 37  1  0  0  0  0
 18 38  1  0  0  0  0
 20 39  1  0  0  0  0
 20 40  1  0  0  0  0
 20 41  1  0  0  0  0
M  CHG  2  20   1  21  -1
M  END
$$$$
