@<TRIPOS>MOLECULE
AVX40944_1
   58    60     0     0     0
SMALL
NO_CHARGES

@<TRIPOS>ATOM
      1 C1          6.5136    1.8707   -1.1027 C.ar      1 MOL         0.0000
      2 C2          6.1025    2.4978   -2.2788 C.ar      1 MOL         0.0000
      3 C3          5.6550    0.9895   -0.4453 C.ar      1 MOL         0.0000
      4 C4          2.7827    3.0930    3.1138 C.ar      1 MOL         0.0000
      5 C5          3.0220    4.0876    2.1656 C.ar      1 MOL         0.0000
      6 C6          4.8328    2.2439   -2.7975 C.ar      1 MOL         0.0000
      7 C7          4.3854    0.7355   -0.9640 C.ar      1 MOL         0.0000
      8 C8          1.4735    2.7696    3.4702 C.ar      1 MOL         0.0000
      9 C9         -1.7467    2.9307   -1.7860 C.ar      1 MOL         0.0000
     10 C10        -2.6638    3.5091   -0.9085 C.ar      1 MOL         0.0000
     11 C11         0.6428    4.4356    1.9302 C.ar      1 MOL         0.0000
     12 C12         1.9521    4.7589    1.5738 C.ar      1 MOL         0.0000
     13 C13        -0.7440    1.7286    0.0543 C.ar      1 MOL         0.0000
     14 C14         3.9742    1.3627   -2.1401 C.ar      1 MOL         0.0000
     15 C15         0.4035    3.4409    2.8784 C.ar      1 MOL         0.0000
     16 C16        -0.7868    2.0404   -1.3046 C.ar      1 MOL         0.0000
     17 C17        -1.6610    2.3071    0.9318 C.ar      1 MOL         0.0000
     18 C18        -2.6209    3.1973    0.4504 C.ar      1 MOL         0.0000
     19 C19         2.2040    5.8086    0.5736 C.2       1 MOL         0.0000
     20 C20         0.2731    0.7857    0.5622 C.2       1 MOL         0.0000
     21 C21         1.6377    3.3803   -2.8348 C.3       1 MOL         0.0000
     22 C22        -4.4697    4.6701    0.7123 C.3       1 MOL         0.0000
     23 C23        -1.0132    3.0912    3.2641 C.3       1 MOL         0.0000
     24 C24        -1.6243    1.9799    2.3912 C.3       1 MOL         0.0000
     25 C25         2.6083    1.0892   -2.6974 C.3       1 MOL         0.0000
     26 C26         0.1862    1.4340   -2.2724 C.3       1 MOL         0.0000
     27 N1          1.5609    2.0319   -2.1773 N.4       1 MOL         0.0000
     28 O1          1.1982    6.4128    0.0422 O.co2     1 MOL         0.0000
     29 O2         -0.0138   -0.4667    0.5989 O.co2     1 MOL         0.0000
     30 O3          3.4219    6.0886    0.2620 O.co2     1 MOL         0.0000
     31 O4          1.4064    1.2534    0.9485 O.co2     1 MOL         0.0000
     32 O5         -3.5253    3.7726    1.2919 O.3       1 MOL         0.0000
     33 H1          7.5027    2.0675   -0.6996 H         1 MOL         0.0000
     34 H2          6.7712    3.1832   -2.7913 H         1 MOL         0.0000
     35 H3          5.9752    0.5002    0.4698 H         1 MOL         0.0000
     36 H4          3.6160    2.5703    3.5742 H         1 MOL         0.0000
     37 H5          4.0461    4.3316    1.8948 H         1 MOL         0.0000
     38 H6          4.5209    2.7372   -3.7143 H         1 MOL         0.0000
     39 H7          3.7232    0.0475   -0.4450 H         1 MOL         0.0000
     40 H8          1.2965    1.9932    4.2097 H         1 MOL         0.0000
     41 H9         -1.7885    3.1802   -2.8430 H         1 MOL         0.0000
     42 H10        -3.4090    4.2018   -1.2901 H         1 MOL         0.0000
     43 H11        -0.1925    4.9580    1.4696 H         1 MOL         0.0000
     44 H12         1.4319    3.2454   -3.8982 H         1 MOL         0.0000
     45 H13         0.8885    4.0227   -2.3683 H         1 MOL         0.0000
     46 H14         2.6443    3.7722   -2.6766 H         1 MOL         0.0000
     47 H15        -5.1310    5.0575    1.4912 H         1 MOL         0.0000
     48 H16        -5.0533    4.1452   -0.0482 H         1 MOL         0.0000
     49 H17        -3.9324    5.5003    0.2476 H         1 MOL         0.0000
     50 H18        -1.0142    2.7729    4.3148 H         1 MOL         0.0000
     51 H19        -1.6419    3.9901    3.2271 H         1 MOL         0.0000
     52 H20        -2.6523    1.7897    2.7398 H         1 MOL         0.0000
     53 H21        -1.0857    1.0335    2.5608 H         1 MOL         0.0000
     54 H22         2.6003    1.1813   -3.7888 H         1 MOL         0.0000
     55 H23         2.2737    0.0771   -2.4455 H         1 MOL         0.0000
     56 H24         0.2985    0.3583   -2.0993 H         1 MOL         0.0000
     57 H25        -0.1463    1.5727   -3.3068 H         1 MOL         0.0000
     58 H26         1.7569    2.1763   -1.1775 H         1 MOL         0.0000
@<TRIPOS>BOND
     1    1    2 ar
     2    1    3 ar
     3    2    6 ar
     4    3    7 ar
     5    4    5 ar
     6    4    8 ar
     7    5   12 ar
     8    6   14 ar
     9    7   14 ar
    10    8   15 ar
    11    9   10 ar
    12    9   16 ar
    13   10   18 ar
    14   11   12 ar
    15   11   15 ar
    16   12   19 1
    17   13   16 ar
    18   13   17 ar
    19   13   20 1
    20   14   25 1
    21   15   23 1
    22   16   26 1
    23   17   18 ar
    24   17   24 1
    25   18   32 1
    26   19   28 1
    27   19   30 2
    28   20   29 1
    29   20   31 2
    30   21   27 1
    31   22   32 1
    32   23   24 1
    33   25   27 1
    34   26   27 1
    35    1   33 1
    36    2   34 1
    37    3   35 1
    38    4   36 1
    39    5   37 1
    40    6   38 1
    41    7   39 1
    42    8   40 1
    43    9   41 1
    44   10   42 1
    45   11   43 1
    46   21   44 1
    47   21   45 1
    48   21   46 1
    49   22   47 1
    50   22   48 1
    51   22   49 1
    52   23   50 1
    53   23   51 1
    54   24   52 1
    55   24   53 1
    56   25   54 1
    57   25   55 1
    58   26   56 1
    59   26   57 1
    60   27   58 1
