@<TRIPOS>MOLECULE
AVX40813_0
   43    47     0     0     0
SMALL
NO_CHARGES

@<TRIPOS>ATOM
      1 C1         -0.6807   -0.4150    4.4298 C.ar      1 MOL         0.0000
      2 C2          0.2280    3.2600   -3.2033 C.ar      1 MOL         0.0000
      3 C3         -0.2908   -1.7553    4.5702 C.ar      1 MOL         0.0000
      4 C4         -0.0873    3.8697   -2.0071 C.ar      1 MOL         0.0000
      5 C5         -0.6598    0.2077    3.1781 C.ar      1 MOL         0.0000
      6 C6          0.3105    1.8696   -3.2576 C.ar      1 MOL         0.0000
      7 C7          0.1243   -2.4908    3.4602 C.ar      1 MOL         0.0000
      8 C8         -0.2944    3.0785   -0.8808 C.ar      1 MOL         0.0000
      9 C9         -0.3796   -4.9638   -2.1460 C.ar      1 MOL         0.0000
     10 C10        -1.7473   -2.9866   -2.0796 C.ar      1 MOL         0.0000
     11 C11        -1.5459   -5.7010   -2.2731 C.ar      1 MOL         0.0000
     12 C12        -2.8524   -3.8122   -2.2099 C.ar      1 MOL         0.0000
     13 C13        -0.2460   -0.5297    2.0790 C.ar      1 MOL         0.0000
     14 C14         0.0873    1.0451   -2.1223 C.ar      1 MOL         0.0000
     15 C15         0.1378   -1.8592    2.2291 C.ar      1 MOL         0.0000
     16 C16        -0.4909   -3.5813   -2.0480 C.ar      1 MOL         0.0000
     17 C17        -0.1944    1.6633   -0.9041 C.ar      1 MOL         0.0000
     18 C18        -0.1122   -0.1557    0.6629 C.cat     1 MOL         0.0000
     19 C19         0.1316   -0.4061   -2.4247 C.2       1 MOL         0.0000
     20 C20         0.5277   -2.4059    0.9005 C.3       1 MOL         0.0000
     21 C21         0.7407   -2.7341   -1.9079 C.3       1 MOL         0.0000
     22 N1         -2.7839   -5.1589   -2.3077 N.ar      1 MOL         0.0000
     23 N2          0.2972   -1.2366   -0.0231 N.pl3     1 MOL         0.0000
     24 N3          0.4231   -1.3758   -1.4830 N.am      1 MOL         0.0000
     25 N4         -0.3849    1.0879    0.3120 N.pl3     1 MOL         0.0000
     26 O1         -0.0577   -0.7176   -3.6078 O.2       1 MOL         0.0000
     27 H1         -1.0019    0.1445    5.3043 H         1 MOL         0.0000
     28 H2          0.4030    3.8535   -4.0951 H         1 MOL         0.0000
     29 H3         -0.3131   -2.2221    5.5510 H         1 MOL         0.0000
     30 H4         -0.1642    4.9501   -1.9405 H         1 MOL         0.0000
     31 H5         -0.9643    1.2446    3.0912 H         1 MOL         0.0000
     32 H6          0.5578    1.4382   -4.2268 H         1 MOL         0.0000
     33 H7          0.4256   -3.5273    3.5641 H         1 MOL         0.0000
     34 H8         -0.5256    3.5873    0.0552 H         1 MOL         0.0000
     35 H9          0.5857   -5.4583   -2.1236 H         1 MOL         0.0000
     36 H10        -1.8665   -1.9111   -2.0057 H         1 MOL         0.0000
     37 H11        -1.5134   -6.7828   -2.3518 H         1 MOL         0.0000
     38 H12        -3.8545   -3.3974   -2.2397 H         1 MOL         0.0000
     39 H13         1.5862   -2.6788    0.8772 H         1 MOL         0.0000
     40 H14        -0.1262   -3.2344    0.6157 H         1 MOL         0.0000
     41 H15         1.4252   -3.1669   -1.1701 H         1 MOL         0.0000
     42 H16         1.2835   -2.6698   -2.8567 H         1 MOL         0.0000
     43 H17        -0.6794    1.7080    1.0611 H         1 MOL         0.0000
@<TRIPOS>BOND
     1    1    3 ar
     2    1    5 ar
     3    2    4 ar
     4    2    6 ar
     5    3    7 ar
     6    4    8 ar
     7    5   13 ar
     8    6   14 ar
     9    7   15 ar
    10    8   17 ar
    11    9   11 ar
    12    9   16 ar
    13   10   12 ar
    14   10   16 ar
    15   11   22 ar
    16   12   22 ar
    17   13   15 ar
    18   13   18 1
    19   14   17 ar
    20   14   19 1
    21   15   20 1
    22   16   21 1
    23   17   25 1
    24   18   23 1
    25   18   25 2
    26   19   24 am
    27   19   26 2
    28   20   23 1
    29   21   24 1
    30   23   24 1
    31    1   27 1
    32    2   28 1
    33    3   29 1
    34    4   30 1
    35    5   31 1
    36    6   32 1
    37    7   33 1
    38    8   34 1
    39    9   35 1
    40   10   36 1
    41   11   37 1
    42   12   38 1
    43   20   39 1
    44   20   40 1
    45   21   41 1
    46   21   42 1
    47   25   43 1
