@<TRIPOS>MOLECULE
AVX40911_0
   31    33     0     0     0
SMALL
NO_CHARGES

@<TRIPOS>ATOM
      1 C1          1.3522    4.4756    1.5727 C.ar      1 MOL         0.0000
      2 C2          0.6632    3.6747    2.4834 C.ar      1 MOL         0.0000
      3 C3          1.4192    4.1053    0.2295 C.ar      1 MOL         0.0000
      4 C4          0.0414    2.5033    2.0510 C.ar      1 MOL         0.0000
      5 C5          0.7975    2.9339   -0.2028 C.ar      1 MOL         0.0000
      6 C6          2.3984   -0.1712    0.4922 C.ar      1 MOL         0.0000
      7 C7          3.7793   -0.2355    0.2916 C.ar      1 MOL         0.0000
      8 C8          0.1085    2.1329    0.7079 C.ar      1 MOL         0.0000
      9 C9          1.5135   -0.2208   -0.5994 C.ar      1 MOL         0.0000
     10 C10         1.9995   -0.3351   -1.9041 C.ar      1 MOL         0.0000
     11 C11         4.2333   -0.3482   -1.0064 C.ar      1 MOL         0.0000
     12 C12         3.3672   -0.3968   -2.0749 C.ar      1 MOL         0.0000
     13 C13        -0.5481    0.8955    0.2506 C.2       1 MOL         0.0000
     14 C14         0.0823   -0.1497   -0.3310 C.2       1 MOL         0.0000
     15 C15         1.1016   -0.3930   -3.0711 C.2       1 MOL         0.0000
     16 C16         5.3928   -0.5254   -2.8247 C.3       1 MOL         0.0000
     17 O1          0.6878   -1.5425   -3.4760 O.co2     1 MOL         0.0000
     18 O2          0.7624    0.7078   -3.6452 O.co2     1 MOL         0.0000
     19 O3          5.5358   -0.4243   -1.3931 O.3       1 MOL         0.0000
     20 O4          4.0191   -0.5091   -3.2641 O.3       1 MOL         0.0000
     21 H1          1.8352    5.3883    1.9091 H         1 MOL         0.0000
     22 H2          0.6099    3.9634    3.5292 H         1 MOL         0.0000
     23 H3          1.9546    4.7294   -0.4799 H         1 MOL         0.0000
     24 H4         -0.4918    1.8892    2.7729 H         1 MOL         0.0000
     25 H5          0.8587    2.6587   -1.2531 H         1 MOL         0.0000
     26 H6          2.0194   -0.0831    1.5083 H         1 MOL         0.0000
     27 H7          4.4644   -0.1972    1.1310 H         1 MOL         0.0000
     28 H8         -1.6175    0.8445    0.4406 H         1 MOL         0.0000
     29 H9         -0.5075   -1.0094   -0.6629 H         1 MOL         0.0000
     30 H10         5.9208    0.3147   -3.2904 H         1 MOL         0.0000
     31 H11         5.8565   -1.4610   -3.1577 H         1 MOL         0.0000
@<TRIPOS>BOND
     1    1    2 ar
     2    1    3 ar
     3    2    4 ar
     4    3    5 ar
     5    4    8 ar
     6    5    8 ar
     7    6    7 ar
     8    6    9 ar
     9    7   11 ar
    10    8   13 1
    11    9   10 ar
    12    9   14 1
    13   10   12 ar
    14   10   15 1
    15   11   12 ar
    16   11   19 1
    17   12   20 1
    18   13   14 2
    19   15   17 1
    20   15   18 2
    21   16   19 1
    22   16   20 1
    23    1   21 1
    24    2   22 1
    25    3   23 1
    26    4   24 1
    27    5   25 1
    28    6   26 1
    29    7   27 1
    30   13   28 1
    31   14   29 1
    32   16   30 1
    33   16   31 1
