@<TRIPOS>MOLECULE
AVX40916_3
   46    47     0     0     0
SMALL
NO_CHARGES

@<TRIPOS>ATOM
      1 C1          4.4137   -2.5465    1.8232 C.ar      1 MOL         0.0000
      2 C2          5.6882   -2.0918    2.1611 C.ar      1 MOL         0.0000
      3 C3          5.1296   -4.8249    2.1884 C.ar      1 MOL         0.0000
      4 C4          4.1343   -3.9130    1.8368 C.ar      1 MOL         0.0000
      5 C5          6.6836   -3.0036    2.5127 C.ar      1 MOL         0.0000
      6 C6          6.4042   -4.3702    2.5263 C.ar      1 MOL         0.0000
      7 C7          4.8384   -6.2724    2.2019 C.2       1 MOL         0.0000
      8 C8          9.2002   -6.7203    2.4371 C.2       1 MOL         0.0000
      9 C9          1.2778   -4.1072   -2.6271 C.3       1 MOL         0.0000
     10 C10         2.7713   -4.2410   -2.3549 C.3       1 MOL         0.0000
     11 C11         0.5862   -3.3043   -1.5289 C.3       1 MOL         0.0000
     12 C12         3.0544   -4.8107   -0.9730 C.3       1 MOL         0.0000
     13 C13         0.8477   -3.8601   -0.1245 C.3       1 MOL         0.0000
     14 C14         0.1314   -5.1852    0.1305 C.3       1 MOL         0.0000
     15 C15         8.1247   -1.1340    2.8010 C.3       1 MOL         0.0000
     16 C16         2.7544   -4.3728    1.4688 C.3       1 MOL         0.0000
     17 C17         8.2004   -5.7579    1.8166 C.3       1 MOL         0.0000
     18 N1          2.3529   -3.9757    0.0734 N.4       1 MOL         0.0000
     19 O1          4.4026   -6.8019    3.2893 O.co2     1 MOL         0.0000
     20 O2          8.6910   -7.6987    3.0532 O.co2     1 MOL         0.0000
     21 O3          5.0318   -6.9488    1.1258 O.co2     1 MOL         0.0000
     22 O4         10.4140   -6.4247    2.2528 O.co2     1 MOL         0.0000
     23 O5          7.9240   -2.5454    2.8404 O.3       1 MOL         0.0000
     24 O6          7.3837   -5.2550    2.8710 O.3       1 MOL         0.0000
     25 H1          3.6448   -1.8282    1.5510 H         1 MOL         0.0000
     26 H2          5.8994   -1.0259    2.1488 H         1 MOL         0.0000
     27 H3          1.1238   -3.6148   -3.5940 H         1 MOL         0.0000
     28 H4          0.8258   -5.1027   -2.7057 H         1 MOL         0.0000
     29 H5          3.2283   -4.8828   -3.1164 H         1 MOL         0.0000
     30 H6          3.2454   -3.2556   -2.4472 H         1 MOL         0.0000
     31 H7          0.9430   -2.2669   -1.5733 H         1 MOL         0.0000
     32 H8         -0.4921   -3.2683   -1.7244 H         1 MOL         0.0000
     33 H9          2.7105   -5.8447   -0.8727 H         1 MOL         0.0000
     34 H10         4.1276   -4.7693   -0.7580 H         1 MOL         0.0000
     35 H11         0.5027   -3.1234    0.6114 H         1 MOL         0.0000
     36 H12         0.4630   -5.9285   -0.5924 H         1 MOL         0.0000
     37 H13        -0.9440   -5.0475    0.0332 H         1 MOL         0.0000
     38 H14         0.3568   -5.5387    1.1351 H         1 MOL         0.0000
     39 H15         9.1549   -0.9036    3.0836 H         1 MOL         0.0000
     40 H16         7.4293   -0.6467    3.4890 H         1 MOL         0.0000
     41 H17         7.9395   -0.7768    1.7852 H         1 MOL         0.0000
     42 H18         2.6735   -5.4639    1.5209 H         1 MOL         0.0000
     43 H19         2.0032   -3.9499    2.1446 H         1 MOL         0.0000
     44 H20         7.5717   -6.2808    1.0895 H         1 MOL         0.0000
     45 H21         8.7031   -4.9207    1.3229 H         1 MOL         0.0000
     46 H22         2.7162   -3.0195   -0.0419 H         1 MOL         0.0000
@<TRIPOS>BOND
     1    1    2 ar
     2    1    4 ar
     3    2    5 ar
     4    3    4 ar
     5    3    6 ar
     6    3    7 1
     7    4   16 1
     8    5    6 ar
     9    5   23 1
    10    6   24 1
    11    7   19 1
    12    7   21 2
    13    8   17 1
    14    8   20 1
    15    8   22 2
    16    9   10 1
    17    9   11 1
    18   10   12 1
    19   11   13 1
    20   12   18 1
    21   13   14 1
    22   13   18 1
    23   15   23 1
    24   16   18 1
    25   17   24 1
    26    1   25 1
    27    2   26 1
    28    9   27 1
    29    9   28 1
    30   10   29 1
    31   10   30 1
    32   11   31 1
    33   11   32 1
    34   12   33 1
    35   12   34 1
    36   13   35 1
    37   14   36 1
    38   14   37 1
    39   14   38 1
    40   15   39 1
    41   15   40 1
    42   15   41 1
    43   16   42 1
    44   16   43 1
    45   17   44 1
    46   17   45 1
    47   18   46 1
