@<TRIPOS>MOLECULE
AVX40811_0
   51    53     0     0     0
SMALL
NO_CHARGES

@<TRIPOS>ATOM
      1 C1          1.0106    5.1745   -4.1371 C.ar      1 MOL         0.0000
      2 C2          1.1174    3.9004   -3.5906 C.ar      1 MOL         0.0000
      3 C3         -2.5067    0.9004   -3.0947 C.ar      1 MOL         0.0000
      4 C4         -2.7292    1.8221   -4.1205 C.ar      1 MOL         0.0000
      5 C5          0.4817    6.1788   -3.3425 C.ar      1 MOL         0.0000
      6 C6          0.1833    4.7443   -1.5729 C.ar      1 MOL         0.0000
      7 C7          0.6980    3.6728   -2.2846 C.ar      1 MOL         0.0000
      8 C8         -3.2082    2.5263   -1.4236 C.ar      1 MOL         0.0000
      9 C9         -2.7449    1.2504   -1.7539 C.ar      1 MOL         0.0000
     10 C10        -3.1866    3.0750   -3.7675 C.ar      1 MOL         0.0000
     11 C11        -3.4198    3.4177   -2.4552 C.ar      1 MOL         0.0000
     12 C12         0.7995    2.3222   -1.6742 C.2       1 MOL         0.0000
     13 C13        -3.4661    2.9169   -0.0283 C.2       1 MOL         0.0000
     14 C14        -3.8886    5.1208   -3.7047 C.3       1 MOL         0.0000
     15 C15        -1.1429   -3.0784   -2.0429 C.3       1 MOL         0.0000
     16 C16        -1.5340   -4.1008    0.2070 C.3       1 MOL         0.0000
     17 C17        -2.4894    0.2190   -0.6808 C.3       1 MOL         0.0000
     18 C18        -0.9360   -1.6641    0.0717 C.3       1 MOL         0.0000
     19 C19        -0.1280    0.7815    0.0352 C.3       1 MOL         0.0000
     20 C20        -1.6703   -2.8251   -0.6302 C.3       1 MOL         0.0000
     21 C21        -1.0240   -0.2830   -0.6244 C.3       1 MOL         0.0000
     22 N1          0.0638    5.9959   -2.0699 N.ar      1 MOL         0.0000
     23 N2         -0.1151    2.0353   -0.6675 N.am      1 MOL         0.0000
     24 O1         -4.6400    2.7198    0.4637 O.co2     1 MOL         0.0000
     25 O2          1.6746    1.5526   -2.0621 O.2       1 MOL         0.0000
     26 O3         -2.5097    3.4435    0.6550 O.co2     1 MOL         0.0000
     27 O4         -3.4587    4.0965   -4.6246 O.3       1 MOL         0.0000
     28 O5         -3.8669    4.6965   -2.3264 O.3       1 MOL         0.0000
     29 H1          1.3317    5.3755   -5.1527 H         1 MOL         0.0000
     30 H2          1.5278    3.0927   -4.1908 H         1 MOL         0.0000
     31 H3         -2.1465   -0.0951   -3.3435 H         1 MOL         0.0000
     32 H4         -2.5468    1.5563   -5.1555 H         1 MOL         0.0000
     33 H5          0.3770    7.1897   -3.7222 H         1 MOL         0.0000
     34 H6         -0.1596    4.6285   -0.5491 H         1 MOL         0.0000
     35 H7         -3.2299    5.9899   -3.8146 H         1 MOL         0.0000
     36 H8         -4.9110    5.4188   -3.9641 H         1 MOL         0.0000
     37 H9         -0.0735   -3.3144   -2.0311 H         1 MOL         0.0000
     38 H10        -1.6688   -3.9188   -2.5089 H         1 MOL         0.0000
     39 H11        -1.2927   -2.2070   -2.6871 H         1 MOL         0.0000
     40 H12        -0.4820   -4.3875    0.3109 H         1 MOL         0.0000
     41 H13        -2.0607   -4.9355   -0.2674 H         1 MOL         0.0000
     42 H14        -1.9486   -3.9643    1.2116 H         1 MOL         0.0000
     43 H15        -3.1648   -0.6261   -0.8709 H         1 MOL         0.0000
     44 H16        -2.7875    0.6205    0.2964 H         1 MOL         0.0000
     45 H17        -1.3214   -1.5728    1.0960 H         1 MOL         0.0000
     46 H18         0.1205   -1.9437    0.1722 H         1 MOL         0.0000
     47 H19        -0.4687    0.9882    1.0557 H         1 MOL         0.0000
     48 H20         0.9079    0.4378    0.1095 H         1 MOL         0.0000
     49 H21        -2.7397   -2.5943   -0.6954 H         1 MOL         0.0000
     50 H22        -0.6696   -0.3978   -1.6566 H         1 MOL         0.0000
     51 H23        -0.7700    2.7522   -0.3605 H         1 MOL         0.0000
@<TRIPOS>BOND
     1    1    2 ar
     2    1    5 ar
     3    2    7 ar
     4    3    4 ar
     5    3    9 ar
     6    4   10 ar
     7    5   22 ar
     8    6    7 ar
     9    6   22 ar
    10    7   12 1
    11    8    9 ar
    12    8   11 ar
    13    8   13 1
    14    9   17 1
    15   10   11 ar
    16   10   27 1
    17   11   28 1
    18   12   23 am
    19   12   25 2
    20   13   24 1
    21   13   26 2
    22   14   27 1
    23   14   28 1
    24   15   20 1
    25   16   20 1
    26   17   21 1
    27   18   20 1
    28   18   21 1
    29   19   21 1
    30   19   23 1
    31    1   29 1
    32    2   30 1
    33    3   31 1
    34    4   32 1
    35    5   33 1
    36    6   34 1
    37   14   35 1
    38   14   36 1
    39   15   37 1
    40   15   38 1
    41   15   39 1
    42   16   40 1
    43   16   41 1
    44   16   42 1
    45   17   43 1
    46   17   44 1
    47   18   45 1
    48   18   46 1
    49   19   47 1
    50   19   48 1
    51   20   49 1
    52   21   50 1
    53   23   51 1
