AVX40916_1
  -OEChem-04011315023D

 46 47  0     1  0  0  0  0  0999 V2000
    0.9935   -0.4188    4.0458 C   0  0  0  0  0  0  0  0  0  0  0  0
    2.0666    0.3998    4.3976 C   0  0  0  0  0  0  0  0  0  0  0  0
   -0.4817    0.9333    5.3997 C   0  0  0  0  0  0  0  0  0  0  0  0
   -0.2807   -0.1520    4.5468 C   0  0  0  0  0  0  0  0  0  0  0  0
    1.8657    1.4851    5.2505 C   0  0  0  0  0  0  0  0  0  0  0  0
    0.5915    1.7519    5.7515 C   0  0  0  0  0  0  0  0  0  0  0  0
   -1.8286    1.2176    5.9338 C   0  0  0  0  0  0  0  0  0  0  0  0
    0.2914    3.8899    8.6990 C   0  0  0  0  0  0  0  0  0  0  0  0
   -2.4879   -4.6735    4.2650 C   0  0  0  0  0  0  0  0  0  0  0  0
   -3.4283   -3.4958    4.0429 C   0  0  0  0  0  0  0  0  0  0  0  0
   -1.0409   -4.2116    4.4022 C   0  0  0  0  0  0  0  0  0  0  0  0
   -3.2762   -2.4369    5.1235 C   0  0  0  0  0  0  0  0  0  0  0  0
   -0.8479   -3.1288    5.4673 C   0  0  2  0  0  0  0  0  0  0  0  0
   -0.9835   -3.6581    6.8948 C   0  0  0  0  0  0  0  0  0  0  0  0
    4.1908    1.9334    5.0297 C   0  0  0  0  0  0  0  0  0  0  0  0
   -1.4159   -1.0496    4.1510 C   0  0  0  0  0  0  0  0  0  0  0  0
    0.5540    2.5752    7.9823 C   0  0  0  0  0  0  0  0  0  0  0  0
   -1.8368   -1.9912    5.2524 N   0  3  1  0  0  0  0  0  0  0  0  0
   -2.6033    1.9965    5.2659 O   0  5  0  0  0  0  0  0  0  0  0  0
   -0.8504    4.3915    8.4973 O   0  5  0  0  0  0  0  0  0  0  0  0
   -2.1759    0.6758    7.0468 O   0  0  0  0  0  0  0  0  0  0  0  0
    1.2450    4.3117    9.4114 O   0  0  0  0  0  0  0  0  0  0  0  0
    2.9230    2.2762    5.5857 O   0  0  0  0  0  0  0  0  0  0  0  0
    0.4041    2.8152    6.5853 O   0  0  0  0  0  0  0  0  0  0  0  0
    1.1601   -1.2618    3.3805 H   0  0  0  0  0  0  0  0  0  0  0  0
    3.0568    0.1868    4.0038 H   0  0  0  0  0  0  0  0  0  0  0  0
   -2.7883   -5.2229    5.1666 H   0  0  0  0  0  0  0  0  0  0  0  0
   -2.5710   -5.3757    3.4239 H   0  0  0  0  0  0  0  0  0  0  0  0
   -3.2297   -3.0482    3.0604 H   0  0  0  0  0  0  0  0  0  0  0  0
   -4.4669   -3.8548    4.0200 H   0  0  0  0  0  0  0  0  0  0  0  0
   -0.4082   -5.0844    4.6348 H   0  0  0  0  0  0  0  0  0  0  0  0
   -0.6948   -3.8372    3.4258 H   0  0  0  0  0  0  0  0  0  0  0  0
   -3.8825   -1.5436    4.9067 H   0  0  0  0  0  0  0  0  0  0  0  0
   -3.5849   -2.8453    6.0975 H   0  0  0  0  0  0  0  0  0  0  0  0
    0.1663   -2.6600    5.3546 H   0  0  0  0  0  0  0  0  0  0  0  0
   -1.9615   -4.1179    7.0265 H   0  0  0  0  0  0  0  0  0  0  0  0
   -0.8760   -2.8390    7.6038 H   0  0  0  0  0  0  0  0  0  0  0  0
   -0.2111   -4.4009    7.0878 H   0  0  0  0  0  0  0  0  0  0  0  0
    4.9456    2.6433    5.3767 H   0  0  0  0  0  0  0  0  0  0  0  0
    4.1291    1.9549    3.9388 H   0  0  0  0  0  0  0  0  0  0  0  0
    4.4623    0.9271    5.3575 H   0  0  0  0  0  0  0  0  0  0  0  0
   -2.3033   -0.4686    3.8777 H   0  0  0  0  0  0  0  0  0  0  0  0
   -1.1466   -1.6721    3.2909 H   0  0  0  0  0  0  0  0  0  0  0  0
   -0.1704    1.8189    8.2996 H   0  0  0  0  0  0  0  0  0  0  0  0
    1.5667    2.2085    8.1756 H   0  0  0  0  0  0  0  0  0  0  0  0
   -1.7891   -1.4057    6.1371 H   0  0  0  0  0  0  0  0  0  0  0  0
  1  2  2  0  0  0  0
  1  4  1  0  0  0  0
  2  5  1  0  0  0  0
  3  4  2  0  0  0  0
  3  6  1  0  0  0  0
  3  7  1  0  0  0  0
  4 16  1  0  0  0  0
  5  6  2  0  0  0  0
  5 23  1  0  0  0  0
  6 24  1  0  0  0  0
  7 19  1  0  0  0  0
  7 21  2  0  0  0  0
  8 17  1  0  0  0  0
  8 20  1  0  0  0  0
  8 22  2  0  0  0  0
  9 10  1  0  0  0  0
  9 11  1  0  0  0  0
 10 12  1  0  0  0  0
 11 13  1  0  0  0  0
 12 18  1  0  0  0  0
 13 14  1  0  0  0  0
 13 18  1  0  0  0  0
 15 23  1  0  0  0  0
 16 18  1  0  0  0  0
 17 24  1  0  0  0  0
  1 25  1  0  0  0  0
  2 26  1  0  0  0  0
  9 27  1  0  0  0  0
  9 28  1  0  0  0  0
 10 29  1  0  0  0  0
 10 30  1  0  0  0  0
 11 31  1  0  0  0  0
 11 32  1  0  0  0  0
 12 33  1  0  0  0  0
 12 34  1  0  0  0  0
 13 35  1  0  0  0  0
 14 36  1  0  0  0  0
 14 37  1  0  0  0  0
 14 38  1  0  0  0  0
 15 39  1  0  0  0  0
 15 40  1  0  0  0  0
 15 41  1  0  0  0  0
 16 42  1  0  0  0  0
 16 43  1  0  0  0  0
 17 44  1  0  0  0  0
 17 45  1  0  0  0  0
 18 46  1  0  0  0  0
M  CHG  3  18   1  19  -1  20  -1
M  END
$$$$
