@<TRIPOS>MOLECULE
AVX40910_0
   43    45     0     0     0
SMALL
NO_CHARGES

@<TRIPOS>ATOM
      1 C1          0.6153   -1.1664   -3.0582 C.ar      1 MOL         0.0000
      2 C2         -1.7071   -1.8248   -3.1576 C.ar      1 MOL         0.0000
      3 C3         -1.5485    1.6612    0.8915 C.ar      1 MOL         0.0000
      4 C4          0.8345   -1.7512   -4.3054 C.ar      1 MOL         0.0000
      5 C5         -1.4880   -2.4096   -4.4049 C.ar      1 MOL         0.0000
      6 C6         -1.8296    2.2777    2.1131 C.ar      1 MOL         0.0000
      7 C7         -0.6555   -1.2032   -2.4843 C.ar      1 MOL         0.0000
      8 C8         -0.3361    0.9760    0.6979 C.ar      1 MOL         0.0000
      9 C9          0.6093    0.8997    1.7236 C.ar      1 MOL         0.0000
     10 C10        -0.2171   -2.3727   -4.9788 C.ar      1 MOL         0.0000
     11 C11        -0.8794    2.1876    3.1095 C.ar      1 MOL         0.0000
     12 C12         0.3073    1.5169    2.9201 C.ar      1 MOL         0.0000
     13 C13        -0.8873   -0.5855   -1.1666 C.2       1 MOL         0.0000
     14 C14        -0.0959    0.3513   -0.5973 C.2       1 MOL         0.0000
     15 C15         1.8886    0.1876    1.5570 C.2       1 MOL         0.0000
     16 C16         0.2803    2.3127    4.9320 C.3       1 MOL         0.0000
     17 C17         1.0916   -4.1243   -6.2298 C.3       1 MOL         0.0000
     18 C18         0.5210   -1.9429   -7.3488 C.3       1 MOL         0.0000
     19 C19        -1.2356   -3.6617   -6.9730 C.3       1 MOL         0.0000
     20 C20         0.0174   -2.9958   -6.3133 C.3       1 MOL         0.0000
     21 O1          1.9443   -1.0620    1.8598 O.co2     1 MOL         0.0000
     22 O2          2.9061    0.8401    1.1147 O.co2     1 MOL         0.0000
     23 O3         -0.9778    2.7216    4.3573 O.3       1 MOL         0.0000
     24 O4          1.1005    1.5473    4.0254 O.3       1 MOL         0.0000
     25 H1          1.4450   -0.6857   -2.5453 H         1 MOL         0.0000
     26 H2         -2.7034   -1.8613   -2.7234 H         1 MOL         0.0000
     27 H3         -2.2849    1.7196    0.0928 H         1 MOL         0.0000
     28 H4          1.8277   -1.7173   -4.7453 H         1 MOL         0.0000
     29 H5         -2.3129   -2.8919   -4.9227 H         1 MOL         0.0000
     30 H6         -2.7634    2.8072    2.2657 H         1 MOL         0.0000
     31 H7         -1.7908   -0.9123   -0.6575 H         1 MOL         0.0000
     32 H8          0.7831    0.7081   -1.1422 H         1 MOL         0.0000
     33 H9          0.8344    3.2079    5.2369 H         1 MOL         0.0000
     34 H10         0.0780    1.7040    5.8208 H         1 MOL         0.0000
     35 H11         1.2831   -4.5995   -7.1990 H         1 MOL         0.0000
     36 H12         2.0509   -3.7391   -5.8673 H         1 MOL         0.0000
     37 H13         0.7666   -4.9062   -5.5332 H         1 MOL         0.0000
     38 H14         0.6945   -2.3968   -8.3306 H         1 MOL         0.0000
     39 H15        -0.1893   -1.1211   -7.4971 H         1 MOL         0.0000
     40 H16         1.4703   -1.5072   -7.0154 H         1 MOL         0.0000
     41 H17        -1.0128   -4.1051   -7.9511 H         1 MOL         0.0000
     42 H18        -1.6302   -4.4641   -6.3387 H         1 MOL         0.0000
     43 H19        -2.0326   -2.9251   -7.1276 H         1 MOL         0.0000
@<TRIPOS>BOND
     1    1    4 ar
     2    1    7 ar
     3    2    5 ar
     4    2    7 ar
     5    3    6 ar
     6    3    8 ar
     7    4   10 ar
     8    5   10 ar
     9    6   11 ar
    10    7   13 1
    11    8    9 ar
    12    8   14 1
    13    9   12 ar
    14    9   15 1
    15   10   20 1
    16   11   12 ar
    17   11   23 1
    18   12   24 1
    19   13   14 2
    20   15   21 1
    21   15   22 2
    22   16   23 1
    23   16   24 1
    24   17   20 1
    25   18   20 1
    26   19   20 1
    27    1   25 1
    28    2   26 1
    29    3   27 1
    30    4   28 1
    31    5   29 1
    32    6   30 1
    33   13   31 1
    34   14   32 1
    35   16   33 1
    36   16   34 1
    37   17   35 1
    38   17   36 1
    39   17   37 1
    40   18   38 1
    41   18   39 1
    42   18   40 1
    43   19   41 1
    44   19   42 1
    45   19   43 1
