@<TRIPOS>MOLECULE
AVX40989_1
   83    87     0     0     0
SMALL
NO_CHARGES

@<TRIPOS>ATOM
      1 C1         -0.9919   -6.5841   -0.4754 C.ar      1 MOL         0.0000
      2 C2         -0.4220   -5.8581    0.5705 C.ar      1 MOL         0.0000
      3 C3         -0.8897   -6.1168   -1.7857 C.ar      1 MOL         0.0000
      4 C4          3.6099   10.2965    5.4359 C.ar      1 MOL         0.0000
      5 C5          4.3921   10.0254   -3.0871 C.ar      1 MOL         0.0000
      6 C6          2.8780    9.1549    5.7624 C.ar      1 MOL         0.0000
      7 C7          0.2500   -4.6648    0.3061 C.ar      1 MOL         0.0000
      8 C8         -0.2176   -4.9234   -2.0501 C.ar      1 MOL         0.0000
      9 C9          4.5140   10.2653    4.3741 C.ar      1 MOL         0.0000
     10 C10         3.3867    9.0961   -3.3539 C.ar      1 MOL         0.0000
     11 C11         5.1826    9.8895   -1.9459 C.ar      1 MOL         0.0000
     12 C12        -0.8974    4.0401   -2.1255 C.ar      1 MOL         0.0000
     13 C13        -0.2509    5.2462   -2.3958 C.ar      1 MOL         0.0000
     14 C14         3.9544    7.9509    3.9654 C.ar      1 MOL         0.0000
     15 C15         3.9621    7.8950   -1.3381 C.ar      1 MOL         0.0000
     16 C16         3.0502    7.9821    5.0272 C.ar      1 MOL         0.0000
     17 C17         0.0181    4.0503    0.1102 C.ar      1 MOL         0.0000
     18 C18         0.3522   -4.1974   -1.0042 C.ar      1 MOL         0.0000
     19 C19         4.6863    9.0925    3.6389 C.ar      1 MOL         0.0000
     20 C20         3.1717    8.0309   -2.4794 C.ar      1 MOL         0.0000
     21 C21         4.9675    8.8243   -1.0714 C.ar      1 MOL         0.0000
     22 C22        -0.7630    3.4422   -0.8725 C.ar      1 MOL         0.0000
     23 C23         0.5302    5.8543   -1.4131 C.ar      1 MOL         0.0000
     24 C24         0.6647    5.2563   -0.1600 C.ar      1 MOL         0.0000
     25 C25         2.2784    6.7772    5.3714 C.2       1 MOL         0.0000
     26 C26         0.1647    3.4194    1.4371 C.2       1 MOL         0.0000
     27 C27        -0.2566    0.6003   -2.0060 C.3       1 MOL         0.0000
     28 C28        -1.1068   -0.1157    0.1415 C.3       1 MOL         0.0000
     29 C29         0.7357   -0.5573   -2.0386 C.3       1 MOL         0.0000
     30 C30        -0.1392   -1.2941    0.1712 C.3       1 MOL         0.0000
     31 C31         0.7763    6.7811    1.6617 C.3       1 MOL         0.0000
     32 C32        -1.4706    2.1442   -0.6103 C.3       1 MOL         0.0000
     33 C33         1.0747   -2.9138   -1.2893 C.3       1 MOL         0.0000
     34 C34         5.6589    9.0588    2.4969 C.3       1 MOL         0.0000
     35 C35         2.0909    7.0309   -2.7679 C.3       1 MOL         0.0000
     36 C36         5.8124    8.6794    0.1493 C.3       1 MOL         0.0000
     37 N1         -0.5513    1.0069   -0.6256 N.3       1 MOL         0.0000
     38 N2          0.1769   -1.7102   -1.2434 N.4       1 MOL         0.0000
     39 O1          2.4562    5.7076    4.6763 O.co2     1 MOL         0.0000
     40 O2         -0.6787    3.7226    2.3589 O.co2     1 MOL         0.0000
     41 O3          1.4502    6.8318    6.3562 O.co2     1 MOL         0.0000
     42 O4          1.1303    2.5908    1.6210 O.co2     1 MOL         0.0000
     43 O5          6.5275    7.4427    0.0723 O.3       1 MOL         0.0000
     44 O6          1.4308    5.8578    0.7951 O.3       1 MOL         0.0000
     45 O7          1.1560    7.0321   -1.6909 O.3       1 MOL         0.0000
     46 O8          4.9606    8.7353    1.3021 O.3       1 MOL         0.0000
     47 H1         -1.5140   -7.5140   -0.2695 H         1 MOL         0.0000
     48 H2         -0.5006   -6.2224    1.5907 H         1 MOL         0.0000
     49 H3         -1.3323   -6.6823   -2.6003 H         1 MOL         0.0000
     50 H4          3.4755   11.2095    6.0084 H         1 MOL         0.0000
     51 H5          4.5596   10.8548   -3.7682 H         1 MOL         0.0000
     52 H6          2.1758    9.1900    6.5914 H         1 MOL         0.0000
     53 H7          0.6908   -4.1056    1.1273 H         1 MOL         0.0000
     54 H8         -0.1431   -4.5670   -3.0741 H         1 MOL         0.0000
     55 H9          5.0799   11.1595    4.1268 H         1 MOL         0.0000
     56 H10         2.7761    9.2099   -4.2459 H         1 MOL         0.0000
     57 H11         5.9631   10.6187   -1.7456 H         1 MOL         0.0000
     58 H12        -1.5040    3.5742   -2.8977 H         1 MOL         0.0000
     59 H13        -0.3598    5.7069   -3.3739 H         1 MOL         0.0000
     60 H14         4.0896    7.0373    3.3912 H         1 MOL         0.0000
     61 H15         3.7956    7.0642   -0.6565 H         1 MOL         0.0000
     62 H16         0.1849    1.4418   -2.5534 H         1 MOL         0.0000
     63 H17        -1.1763    0.3160   -2.5348 H         1 MOL         0.0000
     64 H18        -2.0700   -0.4367   -0.2773 H         1 MOL         0.0000
     65 H19        -1.2910    0.1985    1.1760 H         1 MOL         0.0000
     66 H20         0.8864   -0.9092   -3.0645 H         1 MOL         0.0000
     67 H21         1.7020   -0.2835   -1.5993 H         1 MOL         0.0000
     68 H22         0.8055   -1.0377    0.6647 H         1 MOL         0.0000
     69 H23        -0.5935   -2.1553    0.6722 H         1 MOL         0.0000
     70 H24         1.4982    7.1877    2.3742 H         1 MOL         0.0000
     71 H25        -0.0309    6.2724    2.1947 H         1 MOL         0.0000
     72 H26         0.3594    7.5952    1.0641 H         1 MOL         0.0000
     73 H27        -1.9655    2.1648    0.3668 H         1 MOL         0.0000
     74 H28        -2.2443    1.9595   -1.3629 H         1 MOL         0.0000
     75 H29         1.8732   -2.7385   -0.5603 H         1 MOL         0.0000
     76 H30         1.5298   -2.9289   -2.2855 H         1 MOL         0.0000
     77 H31         6.1500   10.0299    2.3717 H         1 MOL         0.0000
     78 H32         6.4373    8.3084    2.6725 H         1 MOL         0.0000
     79 H33         1.5659    7.2783   -3.6969 H         1 MOL         0.0000
     80 H34         2.5119    6.0256   -2.8770 H         1 MOL         0.0000
     81 H35         6.5536    9.4953    0.2061 H         1 MOL         0.0000
     82 H36        -0.7095   -1.9883   -1.6869 H         1 MOL         0.0000
     83 H37         7.0822    7.4676   -0.7257 H         1 MOL         0.0000
@<TRIPOS>BOND
     1    1    2 ar
     2    1    3 ar
     3    2    7 ar
     4    3    8 ar
     5    4    6 ar
     6    4    9 ar
     7    5   10 ar
     8    5   11 ar
     9    6   16 ar
    10    7   18 ar
    11    8   18 ar
    12    9   19 ar
    13   10   20 ar
    14   11   21 ar
    15   12   13 ar
    16   12   22 ar
    17   13   23 ar
    18   14   16 ar
    19   14   19 ar
    20   15   20 ar
    21   15   21 ar
    22   16   25 1
    23   17   22 ar
    24   17   24 ar
    25   17   26 1
    26   18   33 1
    27   19   34 1
    28   20   35 1
    29   21   36 1
    30   22   32 1
    31   23   24 ar
    32   23   45 1
    33   24   44 1
    34   25   39 1
    35   25   41 2
    36   26   40 1
    37   26   42 2
    38   27   29 1
    39   27   37 1
    40   28   30 1
    41   28   37 1
    42   29   38 1
    43   30   38 1
    44   31   44 1
    45   32   37 1
    46   33   38 1
    47   34   46 1
    48   35   45 1
    49   36   43 1
    50   36   46 1
    51    1   47 1
    52    2   48 1
    53    3   49 1
    54    4   50 1
    55    5   51 1
    56    6   52 1
    57    7   53 1
    58    8   54 1
    59    9   55 1
    60   10   56 1
    61   11   57 1
    62   12   58 1
    63   13   59 1
    64   14   60 1
    65   15   61 1
    66   27   62 1
    67   27   63 1
    68   28   64 1
    69   28   65 1
    70   29   66 1
    71   29   67 1
    72   30   68 1
    73   30   69 1
    74   31   70 1
    75   31   71 1
    76   31   72 1
    77   32   73 1
    78   32   74 1
    79   33   75 1
    80   33   76 1
    81   34   77 1
    82   34   78 1
    83   35   79 1
    84   35   80 1
    85   36   81 1
    86   38   82 1
    87   43   83 1
