@<TRIPOS>MOLECULE
AVX40871_0
   40    43     0     0     0
SMALL
NO_CHARGES

@<TRIPOS>ATOM
      1 C1          3.8153    1.6013   -2.8452 C.ar      1 MOL         0.0000
      2 C2          1.4668   -1.3393    0.8039 C.ar      1 MOL         0.0000
      3 C3          1.7260   -2.6160    1.3034 C.ar      1 MOL         0.0000
      4 C4          3.4624    0.7658   -3.9049 C.ar      1 MOL         0.0000
      5 C5          1.4638    0.0230   -2.7201 C.ar      1 MOL         0.0000
      6 C6         -0.8570   -1.9272    0.4872 C.ar      1 MOL         0.0000
      7 C7          2.9827    1.6305   -1.7413 C.ar      1 MOL         0.0000
      8 C8          0.1764   -0.9939    0.4014 C.ar      1 MOL         0.0000
      9 C9          1.8122    0.8517   -1.6668 C.ar      1 MOL         0.0000
     10 C10         0.6905   -3.5458    1.4020 C.ar      1 MOL         0.0000
     11 C11        -0.5959   -3.2085    0.9738 C.ar      1 MOL         0.0000
     12 C12         2.2973   -0.0162   -3.8430 C.ar      1 MOL         0.0000
     13 C13         1.8789    1.9981    0.3124 C.2       1 MOL         0.0000
     14 C14         1.6129    2.4887    1.5300 C.2       1 MOL         0.0000
     15 C15        -2.2200   -1.5604    0.0514 C.2       1 MOL         0.0000
     16 C16         3.1204    2.4308   -0.4748 C.3       1 MOL         0.0000
     17 C17        -0.1669   -5.5098    2.2929 C.3       1 MOL         0.0000
     18 C18        -1.2069   -5.4367    1.1919 C.3       1 MOL         0.0000
     19 C19        -0.0697    0.3909   -0.1241 C.3       1 MOL         0.0000
     20 N1          1.1633    1.0739   -0.4479 N.pl3     1 MOL         0.0000
     21 O1         -3.0242   -1.0495    0.9141 O.co2     1 MOL         0.0000
     22 O2         -2.5496   -1.7666   -1.1737 O.co2     1 MOL         0.0000
     23 O3          1.0026   -4.7760    1.9192 O.3       1 MOL         0.0000
     24 O4         -1.6467   -4.0874    1.0146 O.3       1 MOL         0.0000
     25 Cl1         1.8896   -1.0380   -5.1699 Cl        1 MOL         0.0000
     26 H1          4.7140    2.2061   -2.8899 H         1 MOL         0.0000
     27 H2          2.2777   -0.6186    0.7366 H         1 MOL         0.0000
     28 H3          2.7320   -2.8739    1.6226 H         1 MOL         0.0000
     29 H4          4.1045    0.7288   -4.7821 H         1 MOL         0.0000
     30 H5          0.5643   -0.5838   -2.6781 H         1 MOL         0.0000
     31 H6          0.7313    2.1706    2.0696 H         1 MOL         0.0000
     32 H7          2.2763    3.2091    1.9889 H         1 MOL         0.0000
     33 H8          4.0382    2.1563    0.0545 H         1 MOL         0.0000
     34 H9          3.0941    3.5028   -0.6939 H         1 MOL         0.0000
     35 H10        -0.5488   -5.1034    3.2377 H         1 MOL         0.0000
     36 H11         0.1327   -6.5484    2.4637 H         1 MOL         0.0000
     37 H12        -0.8103   -5.8037    0.2372 H         1 MOL         0.0000
     38 H13        -2.0813   -6.0405    1.4538 H         1 MOL         0.0000
     39 H14        -0.6841    0.3564   -1.0304 H         1 MOL         0.0000
     40 H15        -0.6070    1.0001    0.6102 H         1 MOL         0.0000
@<TRIPOS>BOND
     1    1    4 ar
     2    1    7 ar
     3    2    3 ar
     4    2    8 ar
     5    3   10 ar
     6    4   12 ar
     7    5    9 ar
     8    5   12 ar
     9    6    8 ar
    10    6   11 ar
    11    6   15 1
    12    7    9 ar
    13    7   16 1
    14    8   19 1
    15    9   20 1
    16   10   11 ar
    17   10   23 1
    18   11   24 1
    19   12   25 1
    20   13   14 2
    21   13   16 1
    22   13   20 1
    23   15   21 1
    24   15   22 2
    25   17   18 1
    26   17   23 1
    27   18   24 1
    28   19   20 1
    29    1   26 1
    30    2   27 1
    31    3   28 1
    32    4   29 1
    33    5   30 1
    34   14   31 1
    35   14   32 1
    36   16   33 1
    37   16   34 1
    38   17   35 1
    39   17   36 1
    40   18   37 1
    41   18   38 1
    42   19   39 1
    43   19   40 1
