AVX40988_0
  -OEChem-04011315033D

 31 33  0     0  0  0  0  0  0999 V2000
    0.4176   -2.0272   -4.2542 C   0  0  0  0  0  0  0  0  0  0  0  0
    0.1795   -1.4246   -3.0190 C   0  0  0  0  0  0  0  0  0  0  0  0
    0.8726    1.2794    1.5062 C   0  0  0  0  0  0  0  0  0  0  0  0
    0.7042    1.9049    2.7438 C   0  0  0  0  0  0  0  0  0  0  0  0
    1.1028   -1.3305   -5.2497 C   0  0  0  0  0  0  0  0  0  0  0  0
    1.3115    0.5716   -3.7747 C   0  0  0  0  0  0  0  0  0  0  0  0
    0.6264   -0.1252   -2.7793 C   0  0  0  0  0  0  0  0  0  0  0  0
   -0.1481    0.4787    0.9641 C   0  0  0  0  0  0  0  0  0  0  0  0
   -1.3491    0.2943    1.6535 C   0  0  0  0  0  0  0  0  0  0  0  0
   -0.4910    1.7067    3.4041 C   0  0  0  0  0  0  0  0  0  0  0  0
   -1.4901    0.9230    2.8735 C   0  0  0  0  0  0  0  0  0  0  0  0
    1.5496   -0.0311   -5.0099 C   0  0  0  0  0  0  0  0  0  0  0  0
    0.3743    0.5108   -1.4741 C   0  0  0  0  0  0  0  0  0  0  0  0
    0.0823   -0.1497   -0.3310 C   0  0  0  0  0  0  0  0  0  0  0  0
   -2.4412   -0.5352    1.1144 C   0  0  0  0  0  0  0  0  0  0  0  0
   -2.1588    1.6916    4.7825 C   0  0  0  0  0  0  0  0  0  0  0  0
   -3.3339    0.0234    0.3742 O   0  5  0  0  0  0  0  0  0  0  0  0
   -2.4649   -1.7893    1.4024 O   0  0  0  0  0  0  0  0  0  0  0  0
   -0.8328    2.2326    4.6117 O   0  0  0  0  0  0  0  0  0  0  0  0
   -2.5825    0.8600    3.6827 O   0  0  0  0  0  0  0  0  0  0  0  0
    2.3948    0.8277   -6.2389 Cl  0  0  0  0  0  0  0  0  0  0  0  0
    0.0697   -3.0390   -4.4409 H   0  0  0  0  0  0  0  0  0  0  0  0
   -0.3559   -1.9805   -2.2531 H   0  0  0  0  0  0  0  0  0  0  0  0
    1.8074    1.4236    0.9684 H   0  0  0  0  0  0  0  0  0  0  0  0
    1.4894    2.5227    3.1648 H   0  0  0  0  0  0  0  0  0  0  0  0
    1.2811   -1.8129   -6.2073 H   0  0  0  0  0  0  0  0  0  0  0  0
    1.6604    1.5855   -3.5885 H   0  0  0  0  0  0  0  0  0  0  0  0
    0.4696    1.5939   -1.4637 H   0  0  0  0  0  0  0  0  0  0  0  0
    0.0388   -1.2429   -0.3443 H   0  0  0  0  0  0  0  0  0  0  0  0
   -2.1790    1.0955    5.7021 H   0  0  0  0  0  0  0  0  0  0  0  0
   -2.8656    2.5229    4.8860 H   0  0  0  0  0  0  0  0  0  0  0  0
  1  2  1  0  0  0  0
  1  5  2  0  0  0  0
  2  7  2  0  0  0  0
  3  4  2  0  0  0  0
  3  8  1  0  0  0  0
  4 10  1  0  0  0  0
  5 12  1  0  0  0  0
  6  7  1  0  0  0  0
  6 12  2  0  0  0  0
  7 13  1  0  0  0  0
  8  9  2  0  0  0  0
  8 14  1  0  0  0  0
  9 11  1  0  0  0  0
  9 15  1  0  0  0  0
 10 11  2  0  0  0  0
 10 19  1  0  0  0  0
 11 20  1  0  0  0  0
 12 21  1  0  0  0  0
 13 14  2  0  0  0  0
 15 17  1  0  0  0  0
 15 18  2  0  0  0  0
 16 19  1  0  0  0  0
 16 20  1  0  0  0  0
  1 22  1  0  0  0  0
  2 23  1  0  0  0  0
  3 24  1  0  0  0  0
  4 25  1  0  0  0  0
  5 26  1  0  0  0  0
  6 27  1  0  0  0  0
 13 28  1  0  0  0  0
 14 29  1  0  0  0  0
 16 30  1  0  0  0  0
 16 31  1  0  0  0  0
M  CHG  1  17  -1
M  END
$$$$
