@<TRIPOS>MOLECULE
AVX40812_0
   59    62     0     0     0
SMALL
NO_CHARGES

@<TRIPOS>ATOM
      1 C1          3.5973   -3.4843   -3.4762 C.ar      1 MOL         0.0000
      2 C2          4.5823   -3.3670   -4.4548 C.ar      1 MOL         0.0000
      3 C3          3.4358   -2.4943   -2.5000 C.ar      1 MOL         0.0000
      4 C4         -2.2653    1.6460   -2.7314 C.ar      1 MOL         0.0000
      5 C5          5.4354   -2.2602   -4.4898 C.ar      1 MOL         0.0000
      6 C6         -2.4033    2.8517   -3.4232 C.ar      1 MOL         0.0000
      7 C7          5.4318    0.5541   -2.2103 C.2       1 MOL         0.0000
      8 C8          4.2842   -1.3694   -2.5152 C.ar      1 MOL         0.0000
      9 C9         -3.1942    2.6467   -0.7155 C.ar      1 MOL         0.0000
     10 C10        -2.6585    1.5440   -1.3854 C.ar      1 MOL         0.0000
     11 C11         4.4028   -0.2061   -1.7041 C.2       1 MOL         0.0000
     12 C12         5.2624   -1.2785   -3.5077 C.ar      1 MOL         0.0000
     13 C13        -2.9350    3.9254   -2.7388 C.ar      1 MOL         0.0000
     14 C14        -3.3199    3.8256   -1.4213 C.ar      1 MOL         0.0000
     15 C15        -3.6142    2.5657    0.6927 C.2       1 MOL         0.0000
     16 C16         2.1831    0.6596   -0.8672 C.2       1 MOL         0.0000
     17 C17        -3.7025    5.8446   -2.0989 C.3       1 MOL         0.0000
     18 C18        -1.1429   -3.0784   -2.0429 C.3       1 MOL         0.0000
     19 C19        -1.5340   -4.1008    0.2070 C.3       1 MOL         0.0000
     20 C20         3.5612    0.1405   -0.5046 C.3       1 MOL         0.0000
     21 C21        -2.4894    0.2190   -0.6808 C.3       1 MOL         0.0000
     22 C22        -0.9360   -1.6641    0.0717 C.3       1 MOL         0.0000
     23 C23        -0.1280    0.7815    0.0352 C.3       1 MOL         0.0000
     24 C24        -1.6703   -2.8251   -0.6302 C.3       1 MOL         0.0000
     25 C25        -1.0240   -0.2830   -0.6244 C.3       1 MOL         0.0000
     26 N1          5.9438   -0.1008   -3.2982 N.pl3     1 MOL         0.0000
     27 N2          1.2517    0.3901    0.1308 N.am      1 MOL         0.0000
     28 O1         -4.8279    2.2269    0.9590 O.co2     1 MOL         0.0000
     29 O2         -2.7544    2.8367    1.6126 O.co2     1 MOL         0.0000
     30 O3          1.9347    1.2484   -1.9162 O.2       1 MOL         0.0000
     31 O4         -3.1438    5.1710   -3.2454 O.3       1 MOL         0.0000
     32 O5         -3.8176    4.9964   -0.9380 O.3       1 MOL         0.0000
     33 H1          2.9457   -4.3539   -3.4699 H         1 MOL         0.0000
     34 H2          4.6901   -4.1478   -5.2033 H         1 MOL         0.0000
     35 H3          2.6626   -2.6000   -1.7444 H         1 MOL         0.0000
     36 H4         -1.8496    0.7827   -3.2457 H         1 MOL         0.0000
     37 H5          6.2025   -2.1703   -5.2513 H         1 MOL         0.0000
     38 H6         -2.1015    2.9346   -4.4610 H         1 MOL         0.0000
     39 H7          5.8451    1.5026   -1.8959 H         1 MOL         0.0000
     40 H8         -3.0629    6.6984   -1.8475 H         1 MOL         0.0000
     41 H9         -4.6994    6.2167   -2.3619 H         1 MOL         0.0000
     42 H10        -0.0735   -3.3144   -2.0311 H         1 MOL         0.0000
     43 H11        -1.6688   -3.9188   -2.5089 H         1 MOL         0.0000
     44 H12        -1.2927   -2.2070   -2.6871 H         1 MOL         0.0000
     45 H13        -0.4820   -4.3875    0.3109 H         1 MOL         0.0000
     46 H14        -2.0607   -4.9355   -0.2674 H         1 MOL         0.0000
     47 H15        -1.9486   -3.9643    1.2116 H         1 MOL         0.0000
     48 H16         3.4488   -0.7450    0.1339 H         1 MOL         0.0000
     49 H17         4.0733    0.8991    0.1008 H         1 MOL         0.0000
     50 H18        -3.1137   -0.5148   -1.2083 H         1 MOL         0.0000
     51 H19        -2.9042    0.2839    0.3335 H         1 MOL         0.0000
     52 H20        -1.3214   -1.5728    1.0960 H         1 MOL         0.0000
     53 H21         0.1205   -1.9437    0.1722 H         1 MOL         0.0000
     54 H22        -0.1586    1.7146   -0.5378 H         1 MOL         0.0000
     55 H23        -0.4714    1.0181    1.0466 H         1 MOL         0.0000
     56 H24        -2.7397   -2.5943   -0.6954 H         1 MOL         0.0000
     57 H25        -0.6696   -0.3978   -1.6566 H         1 MOL         0.0000
     58 H26         6.7112    0.2316   -3.8658 H         1 MOL         0.0000
     59 H27         1.5611   -0.1062    0.9653 H         1 MOL         0.0000
@<TRIPOS>BOND
     1    1    2 ar
     2    1    3 ar
     3    2    5 ar
     4    3    8 ar
     5    4    6 ar
     6    4   10 ar
     7    5   12 ar
     8    6   13 ar
     9    7   11 2
    10    7   26 1
    11    8   11 1
    12    8   12 ar
    13    9   10 ar
    14    9   14 ar
    15    9   15 1
    16   10   21 1
    17   11   20 1
    18   12   26 1
    19   13   14 ar
    20   13   31 1
    21   14   32 1
    22   15   28 1
    23   15   29 2
    24   16   20 1
    25   16   27 am
    26   16   30 2
    27   17   31 1
    28   17   32 1
    29   18   24 1
    30   19   24 1
    31   21   25 1
    32   22   24 1
    33   22   25 1
    34   23   25 1
    35   23   27 1
    36    1   33 1
    37    2   34 1
    38    3   35 1
    39    4   36 1
    40    5   37 1
    41    6   38 1
    42    7   39 1
    43   17   40 1
    44   17   41 1
    45   18   42 1
    46   18   43 1
    47   18   44 1
    48   19   45 1
    49   19   46 1
    50   19   47 1
    51   20   48 1
    52   20   49 1
    53   21   50 1
    54   21   51 1
    55   22   52 1
    56   22   53 1
    57   23   54 1
    58   23   55 1
    59   24   56 1
    60   25   57 1
    61   26   58 1
    62   27   59 1
