AVX40883_0
  -OEChem-04011315023D

 35 38  0     0  0  0  0  0  0999 V2000
    5.0209    3.8334   -1.7289 C   0  0  0  0  0  0  0  0  0  0  0  0
   -0.0953    5.4502    0.2788 C   0  0  0  0  0  0  0  0  0  0  0  0
   -0.8511    5.5572    1.4488 C   0  0  0  0  0  0  0  0  0  0  0  0
    5.4219    5.1226   -2.0884 C   0  0  0  0  0  0  0  0  0  0  0  0
    3.1040    5.8300   -2.3433 C   0  0  0  0  0  0  0  0  0  0  0  0
   -1.9294    4.3175   -0.8532 C   0  0  0  0  0  0  0  0  0  0  0  0
    3.6657    3.5634   -1.6823 C   0  0  0  0  0  0  0  0  0  0  0  0
   -0.6314    4.8340   -0.8656 C   0  0  0  0  0  0  0  0  0  0  0  0
    2.7261    4.5481   -1.9852 C   0  0  0  0  0  0  0  0  0  0  0  0
   -2.1298    5.0392    1.4347 C   0  0  0  0  0  0  0  0  0  0  0  0
   -2.6545    4.4360    0.3146 C   0  0  0  0  0  0  0  0  0  0  0  0
    4.4712    6.1126   -2.3929 C   0  0  0  0  0  0  0  0  0  0  0  0
    1.4901    2.6615   -1.4746 C   0  0  0  0  0  0  0  0  0  0  0  0
   -2.5138    3.6688   -2.0379 C   0  0  0  0  0  0  0  0  0  0  0  0
    2.9684    2.2880   -1.3335 C   0  0  0  0  0  0  0  0  0  0  0  0
   -4.1442    4.3888    1.8832 C   0  0  0  0  0  0  0  0  0  0  0  0
    0.2200    4.7432   -2.0989 C   0  0  0  0  0  0  0  0  0  0  0  0
    1.4392    4.0084   -1.8607 N   0  0  0  0  0  0  0  0  0  0  0  0
   -3.1602    4.3922   -2.8851 O   0  5  0  0  0  0  0  0  0  0  0  0
    0.5587    1.8950   -1.2774 O   0  0  0  0  0  0  0  0  0  0  0  0
   -2.3601    2.3990   -2.1886 O   0  0  0  0  0  0  0  0  0  0  0  0
   -3.0080    5.0521    2.4742 O   0  0  0  0  0  0  0  0  0  0  0  0
   -3.9269    3.9956    0.5126 O   0  0  0  0  0  0  0  0  0  0  0  0
    5.0004    7.6924   -2.8324 Cl  0  0  0  0  0  0  0  0  0  0  0  0
    5.7555    3.0711   -1.4942 H   0  0  0  0  0  0  0  0  0  0  0  0
    0.9158    5.8501    0.2607 H   0  0  0  0  0  0  0  0  0  0  0  0
   -0.4416    6.0317    2.3333 H   0  0  0  0  0  0  0  0  0  0  0  0
    6.4849    5.3496   -2.1293 H   0  0  0  0  0  0  0  0  0  0  0  0
    2.3657    6.5899   -2.5776 H   0  0  0  0  0  0  0  0  0  0  0  0
    3.2132    1.4917   -2.0411 H   0  0  0  0  0  0  0  0  0  0  0  0
    3.1726    1.9902   -0.3018 H   0  0  0  0  0  0  0  0  0  0  0  0
   -4.3736    3.4937    2.4727 H   0  0  0  0  0  0  0  0  0  0  0  0
   -5.0051    5.0660    1.9217 H   0  0  0  0  0  0  0  0  0  0  0  0
   -0.3235    4.2418   -2.9072 H   0  0  0  0  0  0  0  0  0  0  0  0
    0.4948    5.7395   -2.4610 H   0  0  0  0  0  0  0  0  0  0  0  0
  1  4  1  0  0  0  0
  1  7  2  0  0  0  0
  2  3  1  0  0  0  0
  2  8  2  0  0  0  0
  3 10  2  0  0  0  0
  4 12  2  0  0  0  0
  5  9  2  0  0  0  0
  5 12  1  0  0  0  0
  6  8  1  0  0  0  0
  6 11  2  0  0  0  0
  6 14  1  0  0  0  0
  7  9  1  0  0  0  0
  7 15  1  0  0  0  0
  8 17  1  0  0  0  0
  9 18  1  0  0  0  0
 10 11  1  0  0  0  0
 10 22  1  0  0  0  0
 11 23  1  0  0  0  0
 12 24  1  0  0  0  0
 13 15  1  0  0  0  0
 13 18  1  0  0  0  0
 13 20  2  0  0  0  0
 14 19  1  0  0  0  0
 14 21  2  0  0  0  0
 16 22  1  0  0  0  0
 16 23  1  0  0  0  0
 17 18  1  0  0  0  0
  1 25  1  0  0  0  0
  2 26  1  0  0  0  0
  3 27  1  0  0  0  0
  4 28  1  0  0  0  0
  5 29  1  0  0  0  0
 15 30  1  0  0  0  0
 15 31  1  0  0  0  0
 16 32  1  0  0  0  0
 16 33  1  0  0  0  0
 17 34  1  0  0  0  0
 17 35  1  0  0  0  0
M  CHG  1  19  -1
M  END
$$$$
