@<TRIPOS>MOLECULE
AVX40812_1
   59    62     0     0     0
SMALL
NO_CHARGES

@<TRIPOS>ATOM
      1 C1         -4.5108    1.5273    4.0727 C.ar      1 MOL         0.0000
      2 C2         -4.0021    2.5967    4.8071 C.ar      1 MOL         0.0000
      3 C3         -3.7490    0.3707    3.8701 C.ar      1 MOL         0.0000
      4 C4         -2.5067    0.9004   -3.0947 C.ar      1 MOL         0.0000
      5 C5         -2.7198    2.5454    5.3613 C.ar      1 MOL         0.0000
      6 C6         -2.7292    1.8221   -4.1205 C.ar      1 MOL         0.0000
      7 C7         -0.3644   -0.1958    5.1285 C.2       1 MOL         0.0000
      8 C8         -2.4535    0.2961    4.4191 C.ar      1 MOL         0.0000
      9 C9         -3.2082    2.5263   -1.4236 C.ar      1 MOL         0.0000
     10 C10        -2.7449    1.2504   -1.7539 C.ar      1 MOL         0.0000
     11 C11        -1.4299   -0.6925    4.4138 C.2       1 MOL         0.0000
     12 C12        -1.9698    1.3830    5.1505 C.ar      1 MOL         0.0000
     13 C13        -3.1866    3.0750   -3.7675 C.ar      1 MOL         0.0000
     14 C14        -3.4198    3.4177   -2.4552 C.ar      1 MOL         0.0000
     15 C15        -3.4661    2.9169   -0.0283 C.2       1 MOL         0.0000
     16 C16        -0.7071   -2.1070    2.4507 C.2       1 MOL         0.0000
     17 C17        -3.8886    5.1208   -3.7047 C.3       1 MOL         0.0000
     18 C18         2.0052    0.2419   -1.2482 C.3       1 MOL         0.0000
     19 C19         2.1417    1.4838    0.9196 C.3       1 MOL         0.0000
     20 C20        -1.4897   -2.0418    3.7481 C.3       1 MOL         0.0000
     21 C21        -2.4894    0.2190   -0.6808 C.3       1 MOL         0.0000
     22 C22        -0.1114    0.7480    0.0855 C.3       1 MOL         0.0000
     23 C23        -0.9724   -1.6815    0.0179 C.3       1 MOL         0.0000
     24 C24         1.3900    0.3982    0.1429 C.3       1 MOL         0.0000
     25 C25        -1.0240   -0.2830   -0.6244 C.3       1 MOL         0.0000
     26 N1         -0.6995    1.0564    5.5691 N.pl3     1 MOL         0.0000
     27 N2         -1.4796   -1.7139    1.3623 N.am      1 MOL         0.0000
     28 O1         -4.6400    2.7198    0.4637 O.co2     1 MOL         0.0000
     29 O2         -2.5097    3.4435    0.6550 O.co2     1 MOL         0.0000
     30 O3          0.4671   -2.4618    2.3842 O.2       1 MOL         0.0000
     31 O4         -3.4587    4.0965   -4.6246 O.3       1 MOL         0.0000
     32 O5         -3.8669    4.6965   -2.3264 O.3       1 MOL         0.0000
     33 H1         -5.5108    1.5904    3.6522 H         1 MOL         0.0000
     34 H2         -4.6110    3.4854    4.9521 H         1 MOL         0.0000
     35 H3         -4.1602   -0.4547    3.2960 H         1 MOL         0.0000
     36 H4         -2.1465   -0.0951   -3.3435 H         1 MOL         0.0000
     37 H5         -2.3243    3.3788    5.9319 H         1 MOL         0.0000
     38 H6         -2.5468    1.5563   -5.1555 H         1 MOL         0.0000
     39 H7          0.6015   -0.6205    5.3649 H         1 MOL         0.0000
     40 H8         -3.2299    5.9899   -3.8146 H         1 MOL         0.0000
     41 H9         -4.9110    5.4188   -3.9641 H         1 MOL         0.0000
     42 H10         1.8955    1.1593   -1.8362 H         1 MOL         0.0000
     43 H11         3.0740    0.0127   -1.1766 H         1 MOL         0.0000
     44 H12         1.5363   -0.5765   -1.8023 H         1 MOL         0.0000
     45 H13         2.0457    2.4550    0.4225 H         1 MOL         0.0000
     46 H14         3.2090    1.2475    0.9842 H         1 MOL         0.0000
     47 H15         1.7539    1.5853    1.9390 H         1 MOL         0.0000
     48 H16        -1.1031   -2.8071    4.4332 H         1 MOL         0.0000
     49 H17        -2.5342   -2.3069    3.5410 H         1 MOL         0.0000
     50 H18        -3.1648   -0.6261   -0.8709 H         1 MOL         0.0000
     51 H19        -2.7875    0.6205    0.2964 H         1 MOL         0.0000
     52 H20        -0.4758    0.9016    1.1099 H         1 MOL         0.0000
     53 H21        -0.2136    1.7178   -0.4181 H         1 MOL         0.0000
     54 H22        -1.5662   -2.3924   -0.5671 H         1 MOL         0.0000
     55 H23         0.0505   -2.0684    0.0451 H         1 MOL         0.0000
     56 H24         1.5250   -0.5421    0.6895 H         1 MOL         0.0000
     57 H25        -0.6696   -0.3978   -1.6566 H         1 MOL         0.0000
     58 H26        -0.1015    1.6553    6.1216 H         1 MOL         0.0000
     59 H27        -2.4466   -1.4371    1.5254 H         1 MOL         0.0000
@<TRIPOS>BOND
     1    1    2 ar
     2    1    3 ar
     3    2    5 ar
     4    3    8 ar
     5    4    6 ar
     6    4   10 ar
     7    5   12 ar
     8    6   13 ar
     9    7   11 2
    10    7   26 1
    11    8   11 1
    12    8   12 ar
    13    9   10 ar
    14    9   14 ar
    15    9   15 1
    16   10   21 1
    17   11   20 1
    18   12   26 1
    19   13   14 ar
    20   13   31 1
    21   14   32 1
    22   15   28 1
    23   15   29 2
    24   16   20 1
    25   16   27 am
    26   16   30 2
    27   17   31 1
    28   17   32 1
    29   18   24 1
    30   19   24 1
    31   21   25 1
    32   22   24 1
    33   22   25 1
    34   23   25 1
    35   23   27 1
    36    1   33 1
    37    2   34 1
    38    3   35 1
    39    4   36 1
    40    5   37 1
    41    6   38 1
    42    7   39 1
    43   17   40 1
    44   17   41 1
    45   18   42 1
    46   18   43 1
    47   18   44 1
    48   19   45 1
    49   19   46 1
    50   19   47 1
    51   20   48 1
    52   20   49 1
    53   21   50 1
    54   21   51 1
    55   22   52 1
    56   22   53 1
    57   23   54 1
    58   23   55 1
    59   24   56 1
    60   25   57 1
    61   26   58 1
    62   27   59 1
