AVX40944_0
  -OEChem-04011315033D

 58 60  0     1  0  0  0  0  0999 V2000
    6.7168   -3.8253   -1.6489 C   0  0  0  0  0  0  0  0  0  0  0  0
    6.6626   -2.7305   -2.5114 C   0  0  0  0  0  0  0  0  0  0  0  0
    5.5437   -4.4892   -1.2901 C   0  0  0  0  0  0  0  0  0  0  0  0
    6.7212    7.2090   -3.0972 C   0  0  0  0  0  0  0  0  0  0  0  0
    6.9195    7.2624   -1.7175 C   0  0  0  0  0  0  0  0  0  0  0  0
    5.4354   -2.2995   -3.0151 C   0  0  0  0  0  0  0  0  0  0  0  0
    4.3164   -4.0582   -1.7937 C   0  0  0  0  0  0  0  0  0  0  0  0
    6.1834    6.0617   -3.6806 C   0  0  0  0  0  0  0  0  0  0  0  0
    2.0317    0.2124   -5.3271 C   0  0  0  0  0  0  0  0  0  0  0  0
    2.6455    1.1640   -6.1415 C   0  0  0  0  0  0  0  0  0  0  0  0
    6.0425    5.0212   -1.5047 C   0  0  0  0  0  0  0  0  0  0  0  0
    6.5802    6.1685   -0.9213 C   0  0  0  0  0  0  0  0  0  0  0  0
    2.5181    1.5622   -3.3832 C   0  0  0  0  0  0  0  0  0  0  0  0
    4.2622   -2.9633   -2.6562 C   0  0  0  0  0  0  0  0  0  0  0  0
    5.8441    4.9679   -2.8844 C   0  0  0  0  0  0  0  0  0  0  0  0
    1.9679    0.4115   -3.9479 C   0  0  0  0  0  0  0  0  0  0  0  0
    3.1321    2.5138   -4.1977 C   0  0  0  0  0  0  0  0  0  0  0  0
    3.1957    2.3146   -5.5768 C   0  0  0  0  0  0  0  0  0  0  0  0
    6.7896    6.2242    0.5344 C   0  0  0  0  0  0  0  0  0  0  0  0
    2.4498    1.7713   -1.9227 C   0  0  0  0  0  0  0  0  0  0  0  0
    1.6480   -2.0891   -1.1099 C   0  0  0  0  0  0  0  0  0  0  0  0
    3.8101    2.9462   -7.7858 C   0  0  0  0  0  0  0  0  0  0  0  0
    5.2625    3.7263   -3.5155 C   0  0  0  0  0  0  0  0  0  0  0  0
    3.7255    3.7516   -3.6028 C   0  0  0  0  0  0  0  0  0  0  0  0
    2.9418   -2.5001   -3.1974 C   0  0  0  0  0  0  0  0  0  0  0  0
    1.3014   -0.6294   -3.0975 C   0  0  0  0  0  0  0  0  0  0  0  0
    2.2767   -1.4725   -2.3267 N   0  3  1  0  0  0  0  0  0  0  0  0
    6.4675    5.2006    1.2466 O   0  5  0  0  0  0  0  0  0  0  0  0
    1.4335    2.3912   -1.4375 O   0  5  0  0  0  0  0  0  0  0  0  0
    7.2877    7.2949    1.0485 O   0  0  0  0  0  0  0  0  0  0  0  0
    3.4092    1.3259   -1.1924 O   0  0  0  0  0  0  0  0  0  0  0  0
    3.7913    3.2327   -6.3889 O   0  0  0  0  0  0  0  0  0  0  0  0
    7.6726   -4.1617   -1.2579 H   0  0  0  0  0  0  0  0  0  0  0  0
    7.5761   -2.2141   -2.7918 H   0  0  0  0  0  0  0  0  0  0  0  0
    5.5856   -5.3424   -0.6194 H   0  0  0  0  0  0  0  0  0  0  0  0
    6.9853    8.0609   -3.7168 H   0  0  0  0  0  0  0  0  0  0  0  0
    7.3388    8.1613   -1.2730 H   0  0  0  0  0  0  0  0  0  0  0  0
    5.4027   -1.4454   -3.6864 H   0  0  0  0  0  0  0  0  0  0  0  0
    3.4076   -4.5815   -1.5085 H   0  0  0  0  0  0  0  0  0  0  0  0
    6.0322    6.0290   -4.7562 H   0  0  0  0  0  0  0  0  0  0  0  0
    1.6060   -0.6807   -5.7769 H   0  0  0  0  0  0  0  0  0  0  0  0
    2.6917    1.0026   -7.2151 H   0  0  0  0  0  0  0  0  0  0  0  0
    5.7774    4.1676   -0.8852 H   0  0  0  0  0  0  0  0  0  0  0  0
    0.8586   -2.7634   -1.4472 H   0  0  0  0  0  0  0  0  0  0  0  0
    2.4259   -2.6337   -0.5714 H   0  0  0  0  0  0  0  0  0  0  0  0
    1.2398   -1.2816   -0.4992 H   0  0  0  0  0  0  0  0  0  0  0  0
    4.3132    3.7572   -8.3180 H   0  0  0  0  0  0  0  0  0  0  0  0
    2.7855    2.8374   -8.1501 H   0  0  0  0  0  0  0  0  0  0  0  0
    4.3541    2.0131   -7.9500 H   0  0  0  0  0  0  0  0  0  0  0  0
    5.6842    3.6242   -4.5240 H   0  0  0  0  0  0  0  0  0  0  0  0
    5.5955    2.8374   -2.9646 H   0  0  0  0  0  0  0  0  0  0  0  0
    3.4261    4.6191   -4.2130 H   0  0  0  0  0  0  0  0  0  0  0  0
    3.2982    3.9431   -2.6052 H   0  0  0  0  0  0  0  0  0  0  0  0
    3.0569   -2.0463   -4.1876 H   0  0  0  0  0  0  0  0  0  0  0  0
    2.2386   -3.3345   -3.2924 H   0  0  0  0  0  0  0  0  0  0  0  0
    0.6322   -0.1705   -2.3618 H   0  0  0  0  0  0  0  0  0  0  0  0
    0.7053   -1.3164   -3.7079 H   0  0  0  0  0  0  0  0  0  0  0  0
    3.0171   -0.8411   -1.9922 H   0  0  0  0  0  0  0  0  0  0  0  0
  1  2  2  0  0  0  0
  1  3  1  0  0  0  0
  2  6  1  0  0  0  0
  3  7  2  0  0  0  0
  4  5  2  0  0  0  0
  4  8  1  0  0  0  0
  5 12  1  0  0  0  0
  6 14  2  0  0  0  0
  7 14  1  0  0  0  0
  8 15  2  0  0  0  0
  9 10  2  0  0  0  0
  9 16  1  0  0  0  0
 10 18  1  0  0  0  0
 11 12  2  0  0  0  0
 11 15  1  0  0  0  0
 12 19  1  0  0  0  0
 13 16  2  0  0  0  0
 13 17  1  0  0  0  0
 13 20  1  0  0  0  0
 14 25  1  0  0  0  0
 15 23  1  0  0  0  0
 16 26  1  0  0  0  0
 17 18  2  0  0  0  0
 17 24  1  0  0  0  0
 18 32  1  0  0  0  0
 19 28  1  0  0  0  0
 19 30  2  0  0  0  0
 20 29  1  0  0  0  0
 20 31  2  0  0  0  0
 21 27  1  0  0  0  0
 22 32  1  0  0  0  0
 23 24  1  0  0  0  0
 25 27  1  0  0  0  0
 26 27  1  0  0  0  0
  1 33  1  0  0  0  0
  2 34  1  0  0  0  0
  3 35  1  0  0  0  0
  4 36  1  0  0  0  0
  5 37  1  0  0  0  0
  6 38  1  0  0  0  0
  7 39  1  0  0  0  0
  8 40  1  0  0  0  0
  9 41  1  0  0  0  0
 10 42  1  0  0  0  0
 11 43  1  0  0  0  0
 21 44  1  0  0  0  0
 21 45  1  0  0  0  0
 21 46  1  0  0  0  0
 22 47  1  0  0  0  0
 22 48  1  0  0  0  0
 22 49  1  0  0  0  0
 23 50  1  0  0  0  0
 23 51  1  0  0  0  0
 24 52  1  0  0  0  0
 24 53  1  0  0  0  0
 25 54  1  0  0  0  0
 25 55  1  0  0  0  0
 26 56  1  0  0  0  0
 26 57  1  0  0  0  0
 27 58  1  0  0  0  0
M  CHG  3  27   1  28  -1  29  -1
M  END
$$$$
