AVX40812_0
  -OEChem-04011315023D

 59 62  0     1  0  0  0  0  0999 V2000
    3.5973   -3.4843   -3.4762 C   0  0  0  0  0  0  0  0  0  0  0  0
    4.5823   -3.3670   -4.4548 C   0  0  0  0  0  0  0  0  0  0  0  0
    3.4358   -2.4943   -2.5000 C   0  0  0  0  0  0  0  0  0  0  0  0
   -2.2653    1.6460   -2.7314 C   0  0  0  0  0  0  0  0  0  0  0  0
    5.4354   -2.2602   -4.4898 C   0  0  0  0  0  0  0  0  0  0  0  0
   -2.4033    2.8517   -3.4232 C   0  0  0  0  0  0  0  0  0  0  0  0
    5.4318    0.5541   -2.2103 C   0  0  0  0  0  0  0  0  0  0  0  0
    4.2842   -1.3694   -2.5152 C   0  0  0  0  0  0  0  0  0  0  0  0
   -3.1942    2.6467   -0.7155 C   0  0  0  0  0  0  0  0  0  0  0  0
   -2.6585    1.5440   -1.3854 C   0  0  0  0  0  0  0  0  0  0  0  0
    4.4028   -0.2061   -1.7041 C   0  0  0  0  0  0  0  0  0  0  0  0
    5.2624   -1.2785   -3.5077 C   0  0  0  0  0  0  0  0  0  0  0  0
   -2.9350    3.9254   -2.7388 C   0  0  0  0  0  0  0  0  0  0  0  0
   -3.3199    3.8256   -1.4213 C   0  0  0  0  0  0  0  0  0  0  0  0
   -3.6142    2.5657    0.6927 C   0  0  0  0  0  0  0  0  0  0  0  0
    2.1831    0.6596   -0.8672 C   0  0  0  0  0  0  0  0  0  0  0  0
   -3.7025    5.8446   -2.0989 C   0  0  0  0  0  0  0  0  0  0  0  0
   -1.1429   -3.0784   -2.0429 C   0  0  0  0  0  0  0  0  0  0  0  0
   -1.5340   -4.1008    0.2070 C   0  0  0  0  0  0  0  0  0  0  0  0
    3.5612    0.1405   -0.5046 C   0  0  0  0  0  0  0  0  0  0  0  0
   -2.4894    0.2190   -0.6808 C   0  0  0  0  0  0  0  0  0  0  0  0
   -0.9360   -1.6641    0.0717 C   0  0  0  0  0  0  0  0  0  0  0  0
   -0.1280    0.7815    0.0352 C   0  0  0  0  0  0  0  0  0  0  0  0
   -1.6703   -2.8251   -0.6302 C   0  0  0  0  0  0  0  0  0  0  0  0
   -1.0240   -0.2830   -0.6244 C   0  0  2  0  0  0  0  0  0  0  0  0
    5.9438   -0.1008   -3.2982 N   0  0  0  0  0  0  0  0  0  0  0  0
    1.2517    0.3901    0.1308 N   0  0  0  0  0  0  0  0  0  0  0  0
   -4.8279    2.2269    0.9590 O   0  5  0  0  0  0  0  0  0  0  0  0
   -2.7544    2.8367    1.6126 O   0  0  0  0  0  0  0  0  0  0  0  0
    1.9347    1.2484   -1.9162 O   0  0  0  0  0  0  0  0  0  0  0  0
   -3.1438    5.1710   -3.2454 O   0  0  0  0  0  0  0  0  0  0  0  0
   -3.8176    4.9964   -0.9380 O   0  0  0  0  0  0  0  0  0  0  0  0
    2.9457   -4.3539   -3.4699 H   0  0  0  0  0  0  0  0  0  0  0  0
    4.6901   -4.1478   -5.2033 H   0  0  0  0  0  0  0  0  0  0  0  0
    2.6626   -2.6000   -1.7444 H   0  0  0  0  0  0  0  0  0  0  0  0
   -1.8496    0.7827   -3.2457 H   0  0  0  0  0  0  0  0  0  0  0  0
    6.2025   -2.1703   -5.2513 H   0  0  0  0  0  0  0  0  0  0  0  0
   -2.1015    2.9346   -4.4610 H   0  0  0  0  0  0  0  0  0  0  0  0
    5.8451    1.5026   -1.8959 H   0  0  0  0  0  0  0  0  0  0  0  0
   -3.0629    6.6984   -1.8475 H   0  0  0  0  0  0  0  0  0  0  0  0
   -4.6994    6.2167   -2.3619 H   0  0  0  0  0  0  0  0  0  0  0  0
   -0.0735   -3.3144   -2.0311 H   0  0  0  0  0  0  0  0  0  0  0  0
   -1.6688   -3.9188   -2.5089 H   0  0  0  0  0  0  0  0  0  0  0  0
   -1.2927   -2.2070   -2.6871 H   0  0  0  0  0  0  0  0  0  0  0  0
   -0.4820   -4.3875    0.3109 H   0  0  0  0  0  0  0  0  0  0  0  0
   -2.0607   -4.9355   -0.2674 H   0  0  0  0  0  0  0  0  0  0  0  0
   -1.9486   -3.9643    1.2116 H   0  0  0  0  0  0  0  0  0  0  0  0
    3.4488   -0.7450    0.1339 H   0  0  0  0  0  0  0  0  0  0  0  0
    4.0733    0.8991    0.1008 H   0  0  0  0  0  0  0  0  0  0  0  0
   -3.1137   -0.5148   -1.2083 H   0  0  0  0  0  0  0  0  0  0  0  0
   -2.9042    0.2839    0.3335 H   0  0  0  0  0  0  0  0  0  0  0  0
   -1.3214   -1.5728    1.0960 H   0  0  0  0  0  0  0  0  0  0  0  0
    0.1205   -1.9437    0.1722 H   0  0  0  0  0  0  0  0  0  0  0  0
   -0.1586    1.7146   -0.5378 H   0  0  0  0  0  0  0  0  0  0  0  0
   -0.4714    1.0181    1.0466 H   0  0  0  0  0  0  0  0  0  0  0  0
   -2.7397   -2.5943   -0.6954 H   0  0  0  0  0  0  0  0  0  0  0  0
   -0.6696   -0.3978   -1.6566 H   0  0  0  0  0  0  0  0  0  0  0  0
    6.7112    0.2316   -3.8658 H   0  0  0  0  0  0  0  0  0  0  0  0
    1.5611   -0.1062    0.9653 H   0  0  0  0  0  0  0  0  0  0  0  0
  1  2  2  0  0  0  0
  1  3  1  0  0  0  0
  2  5  1  0  0  0  0
  3  8  2  0  0  0  0
  4  6  2  0  0  0  0
  4 10  1  0  0  0  0
  5 12  2  0  0  0  0
  6 13  1  0  0  0  0
  7 11  2  0  0  0  0
  7 26  1  0  0  0  0
  8 11  1  0  0  0  0
  8 12  1  0  0  0  0
  9 10  2  0  0  0  0
  9 14  1  0  0  0  0
  9 15  1  0  0  0  0
 10 21  1  0  0  0  0
 11 20  1  0  0  0  0
 12 26  1  0  0  0  0
 13 14  2  0  0  0  0
 13 31  1  0  0  0  0
 14 32  1  0  0  0  0
 15 28  1  0  0  0  0
 15 29  2  0  0  0  0
 16 20  1  0  0  0  0
 16 27  1  0  0  0  0
 16 30  2  0  0  0  0
 17 31  1  0  0  0  0
 17 32  1  0  0  0  0
 18 24  1  0  0  0  0
 19 24  1  0  0  0  0
 21 25  1  0  0  0  0
 22 24  1  0  0  0  0
 22 25  1  0  0  0  0
 23 25  1  0  0  0  0
 23 27  1  0  0  0  0
  1 33  1  0  0  0  0
  2 34  1  0  0  0  0
  3 35  1  0  0  0  0
  4 36  1  0  0  0  0
  5 37  1  0  0  0  0
  6 38  1  0  0  0  0
  7 39  1  0  0  0  0
 17 40  1  0  0  0  0
 17 41  1  0  0  0  0
 18 42  1  0  0  0  0
 18 43  1  0  0  0  0
 18 44  1  0  0  0  0
 19 45  1  0  0  0  0
 19 46  1  0  0  0  0
 19 47  1  0  0  0  0
 20 48  1  0  0  0  0
 20 49  1  0  0  0  0
 21 50  1  0  0  0  0
 21 51  1  0  0  0  0
 22 52  1  0  0  0  0
 22 53  1  0  0  0  0
 23 54  1  0  0  0  0
 23 55  1  0  0  0  0
 24 56  1  0  0  0  0
 25 57  1  0  0  0  0
 26 58  1  0  0  0  0
 27 59  1  0  0  0  0
M  CHG  1  28  -1
M  END
$$$$
