AVX40909_0
  -OEChem-04011315023D

 43 45  0     0  0  0  0  0  0999 V2000
    0.5105   -1.1597   -3.0832 C   0  0  0  0  0  0  0  0  0  0  0  0
    0.2434    2.2636    0.9373 C   0  0  0  0  0  0  0  0  0  0  0  0
    0.6999   -1.7604   -4.3277 C   0  0  0  0  0  0  0  0  0  0  0  0
    0.0571    2.8943    2.1698 C   0  0  0  0  0  0  0  0  0  0  0  0
   -1.7997   -1.8670   -3.0935 C   0  0  0  0  0  0  0  0  0  0  0  0
   -1.1536    0.3951    1.6340 C   0  0  0  0  0  0  0  0  0  0  0  0
   -0.7394   -1.2131   -2.4660 C   0  0  0  0  0  0  0  0  0  0  0  0
   -0.3586    1.0212    0.6709 C   0  0  0  0  0  0  0  0  0  0  0  0
   -1.6102   -2.4676   -4.3381 C   0  0  0  0  0  0  0  0  0  0  0  0
   -0.3604   -2.4143   -4.9552 C   0  0  0  0  0  0  0  0  0  0  0  0
   -0.7324    2.2549    3.1034 C   0  0  0  0  0  0  0  0  0  0  0  0
   -1.3216    1.0389    2.8426 C   0  0  0  0  0  0  0  0  0  0  0  0
   -0.9396   -0.5798   -1.1506 C   0  0  0  0  0  0  0  0  0  0  0  0
   -0.1495    0.3827   -0.6196 C   0  0  0  0  0  0  0  0  0  0  0  0
   -2.7441   -3.1540   -4.9836 C   0  0  0  0  0  0  0  0  0  0  0  0
   -1.8645    1.6511    4.8457 C   0  0  0  0  0  0  0  0  0  0  0  0
    1.3416   -2.8477   -6.7611 C   0  0  0  0  0  0  0  0  0  0  0  0
   -1.0634   -2.4281   -7.3744 C   0  0  0  0  0  0  0  0  0  0  0  0
   -0.3845   -4.5893   -6.3497 C   0  0  0  0  0  0  0  0  0  0  0  0
   -0.1310   -3.0474   -6.2887 C   0  0  0  0  0  0  0  0  0  0  0  0
   -3.5121   -2.4777   -5.7637 O   0  5  0  0  0  0  0  0  0  0  0  0
   -2.9260   -4.4050   -4.7438 O   0  0  0  0  0  0  0  0  0  0  0  0
   -1.0254    2.7145    4.3504 O   0  0  0  0  0  0  0  0  0  0  0  0
   -2.0570    0.5848    3.8938 O   0  0  0  0  0  0  0  0  0  0  0  0
    1.3471   -0.6542   -2.6068 H   0  0  0  0  0  0  0  0  0  0  0  0
    0.8620    2.7497    0.1857 H   0  0  0  0  0  0  0  0  0  0  0  0
    1.6779   -1.7129   -4.7994 H   0  0  0  0  0  0  0  0  0  0  0  0
    0.5199    3.8519    2.3795 H   0  0  0  0  0  0  0  0  0  0  0  0
   -2.7765   -1.9109   -2.6157 H   0  0  0  0  0  0  0  0  0  0  0  0
   -1.6265   -0.5635    1.4467 H   0  0  0  0  0  0  0  0  0  0  0  0
   -1.8187   -0.9167   -0.6065 H   0  0  0  0  0  0  0  0  0  0  0  0
    0.7038    0.7473   -1.2018 H   0  0  0  0  0  0  0  0  0  0  0  0
   -1.4068    1.2354    5.7508 H   0  0  0  0  0  0  0  0  0  0  0  0
   -2.8434    2.0694    5.1064 H   0  0  0  0  0  0  0  0  0  0  0  0
    1.5369   -3.3036   -7.7388 H   0  0  0  0  0  0  0  0  0  0  0  0
    1.5957   -1.7855   -6.8470 H   0  0  0  0  0  0  0  0  0  0  0  0
    2.0360   -3.2947   -6.0398 H   0  0  0  0  0  0  0  0  0  0  0  0
   -0.8998   -2.8885   -8.3548 H   0  0  0  0  0  0  0  0  0  0  0  0
   -2.1268   -2.5499   -7.1370 H   0  0  0  0  0  0  0  0  0  0  0  0
   -0.8655   -1.3547   -7.4778 H   0  0  0  0  0  0  0  0  0  0  0  0
   -0.2031   -5.0068   -7.3475 H   0  0  0  0  0  0  0  0  0  0  0  0
    0.2744   -5.1215   -5.6538 H   0  0  0  0  0  0  0  0  0  0  0  0
   -1.4221   -4.8252   -6.0860 H   0  0  0  0  0  0  0  0  0  0  0  0
  1  3  1  0  0  0  0
  1  7  2  0  0  0  0
  2  4  2  0  0  0  0
  2  8  1  0  0  0  0
  3 10  2  0  0  0  0
  4 11  1  0  0  0  0
  5  7  1  0  0  0  0
  5  9  2  0  0  0  0
  6  8  2  0  0  0  0
  6 12  1  0  0  0  0
  7 13  1  0  0  0  0
  8 14  1  0  0  0  0
  9 10  1  0  0  0  0
  9 15  1  0  0  0  0
 10 20  1  0  0  0  0
 11 12  2  0  0  0  0
 11 23  1  0  0  0  0
 12 24  1  0  0  0  0
 13 14  2  0  0  0  0
 15 21  1  0  0  0  0
 15 22  2  0  0  0  0
 16 23  1  0  0  0  0
 16 24  1  0  0  0  0
 17 20  1  0  0  0  0
 18 20  1  0  0  0  0
 19 20  1  0  0  0  0
  1 25  1  0  0  0  0
  2 26  1  0  0  0  0
  3 27  1  0  0  0  0
  4 28  1  0  0  0  0
  5 29  1  0  0  0  0
  6 30  1  0  0  0  0
 13 31  1  0  0  0  0
 14 32  1  0  0  0  0
 16 33  1  0  0  0  0
 16 34  1  0  0  0  0
 17 35  1  0  0  0  0
 17 36  1  0  0  0  0
 17 37  1  0  0  0  0
 18 38  1  0  0  0  0
 18 39  1  0  0  0  0
 18 40  1  0  0  0  0
 19 41  1  0  0  0  0
 19 42  1  0  0  0  0
 19 43  1  0  0  0  0
M  CHG  1  21  -1
M  END
$$$$
