@<TRIPOS>MOLECULE
AVX40916_0
   46    47     0     0     0
SMALL
NO_CHARGES

@<TRIPOS>ATOM
      1 C1         -4.0999    0.6461    5.3567 C.ar      1 MOL         0.0000
      2 C2         -3.6770    1.1692    6.5786 C.ar      1 MOL         0.0000
      3 C3         -2.4099   -1.0738    5.5082 C.ar      1 MOL         0.0000
      4 C4         -3.4664   -0.4755    4.8215 C.ar      1 MOL         0.0000
      5 C5         -2.6205    0.5709    7.2653 C.ar      1 MOL         0.0000
      6 C6         -1.9869   -0.5506    6.7301 C.ar      1 MOL         0.0000
      7 C7         -1.7353   -2.2599    4.9438 C.2       1 MOL         0.0000
      8 C8          1.3280   -1.4413    7.9815 C.2       1 MOL         0.0000
      9 C9         -2.0518    0.1357   -0.2528 C.3       1 MOL         0.0000
     10 C10        -2.0214    1.0783    0.9444 C.3       1 MOL         0.0000
     11 C11        -2.0052   -1.3234    0.1919 C.3       1 MOL         0.0000
     12 C12        -3.1131    0.7589    1.9545 C.3       1 MOL         0.0000
     13 C13        -3.0995   -1.6767    1.2057 C.3       1 MOL         0.0000
     14 C14        -4.4938   -1.7131    0.5825 C.3       1 MOL         0.0000
     15 C15        -2.9194    2.2398    8.9330 C.3       1 MOL         0.0000
     16 C16        -3.9429   -1.0162    3.5056 C.3       1 MOL         0.0000
     17 C17         0.3567   -0.6486    7.1219 C.3       1 MOL         0.0000
     18 N1         -3.0159   -0.6925    2.3644 N.4       1 MOL         0.0000
     19 O1         -2.1845   -3.4256    5.2476 O.co2     1 MOL         0.0000
     20 O2          1.3089   -2.6911    7.7984 O.co2     1 MOL         0.0000
     21 O3         -0.7239   -2.0823    4.1702 O.co2     1 MOL         0.0000
     22 O4          2.0369   -0.7502    8.7655 O.co2     1 MOL         0.0000
     23 O5         -2.2180    1.0926    8.4577 O.3       1 MOL         0.0000
     24 O6         -0.9543   -1.1292    7.4082 O.3       1 MOL         0.0000
     25 H1         -4.9241    1.1191    4.8294 H         1 MOL         0.0000
     26 H2         -4.1748    2.0430    6.9903 H         1 MOL         0.0000
     27 H3         -2.9559    0.3191   -0.8448 H         1 MOL         0.0000
     28 H4         -1.1989    0.3470   -0.9079 H         1 MOL         0.0000
     29 H5         -1.0412    1.0105    1.4331 H         1 MOL         0.0000
     30 H6         -2.1311    2.1131    0.6010 H         1 MOL         0.0000
     31 H7         -2.0801   -1.9770   -0.6853 H         1 MOL         0.0000
     32 H8         -1.0243   -1.5230    0.6431 H         1 MOL         0.0000
     33 H9         -2.9819    1.3630    2.8587 H         1 MOL         0.0000
     34 H10        -4.1151    0.9344    1.5512 H         1 MOL         0.0000
     35 H11        -2.8752   -2.6627    1.6307 H         1 MOL         0.0000
     36 H12        -4.7324   -0.7406    0.1554 H         1 MOL         0.0000
     37 H13        -5.2317   -1.9592    1.3441 H         1 MOL         0.0000
     38 H14        -4.5269   -2.4660   -0.2032 H         1 MOL         0.0000
     39 H15        -2.4990    2.5536    9.8915 H         1 MOL         0.0000
     40 H16        -3.9788    1.9979    9.0494 H         1 MOL         0.0000
     41 H17        -2.8101    3.0492    8.2073 H         1 MOL         0.0000
     42 H18        -4.0354   -2.1071    3.5359 H         1 MOL         0.0000
     43 H19        -4.9232   -0.6054    3.2408 H         1 MOL         0.0000
     44 H20         0.5755   -0.8036    6.0610 H         1 MOL         0.0000
     45 H21         0.4027    0.4212    7.3473 H         1 MOL         0.0000
     46 H22        -2.0702   -0.8107    2.7533 H         1 MOL         0.0000
@<TRIPOS>BOND
     1    1    2 ar
     2    1    4 ar
     3    2    5 ar
     4    3    4 ar
     5    3    6 ar
     6    3    7 1
     7    4   16 1
     8    5    6 ar
     9    5   23 1
    10    6   24 1
    11    7   19 1
    12    7   21 2
    13    8   17 1
    14    8   20 1
    15    8   22 2
    16    9   10 1
    17    9   11 1
    18   10   12 1
    19   11   13 1
    20   12   18 1
    21   13   14 1
    22   13   18 1
    23   15   23 1
    24   16   18 1
    25   17   24 1
    26    1   25 1
    27    2   26 1
    28    9   27 1
    29    9   28 1
    30   10   29 1
    31   10   30 1
    32   11   31 1
    33   11   32 1
    34   12   33 1
    35   12   34 1
    36   13   35 1
    37   14   36 1
    38   14   37 1
    39   14   38 1
    40   15   39 1
    41   15   40 1
    42   15   41 1
    43   16   42 1
    44   16   43 1
    45   17   44 1
    46   17   45 1
    47   18   46 1
