@<TRIPOS>MOLECULE
AVX40861_0
   52    55     0     0     0
SMALL
NO_CHARGES

@<TRIPOS>ATOM
      1 C1          2.5541   -3.8679    1.8341 C.ar      1 MOL         0.0000
      2 C2          1.8540   -4.0476    0.6411 C.ar      1 MOL         0.0000
      3 C3          2.8829   -2.5819    2.2629 C.ar      1 MOL         0.0000
      4 C4         -0.2686    1.2443   -2.6696 C.ar      1 MOL         0.0000
      5 C5          3.5754    3.2436   -0.9883 C.ar      1 MOL         0.0000
      6 C6          1.8614    3.9788    0.5475 C.ar      1 MOL         0.0000
      7 C7         -0.8406    2.4991   -2.8923 C.ar      1 MOL         0.0000
      8 C8          1.4829   -2.9413   -0.1231 C.ar      1 MOL         0.0000
      9 C9          3.1034    4.1422   -1.9451 C.ar      1 MOL         0.0000
     10 C10         1.3894    4.8774   -0.4093 C.ar      1 MOL         0.0000
     11 C11         2.5117   -1.4757    1.4987 C.ar      1 MOL         0.0000
     12 C12        -1.0650    1.2420   -0.3688 C.ar      1 MOL         0.0000
     13 C13         2.9543    3.1619    0.2580 C.ar      1 MOL         0.0000
     14 C14        -0.3802    0.6193   -1.4151 C.ar      1 MOL         0.0000
     15 C15        -1.5114    3.0924   -1.8427 C.ar      1 MOL         0.0000
     16 C16        -1.6207    2.4807   -0.6148 C.ar      1 MOL         0.0000
     17 C17         2.0105    4.9590   -1.6556 C.ar      1 MOL         0.0000
     18 C18         1.8117   -1.6553    0.3057 C.ar      1 MOL         0.0000
     19 C19         2.8650   -0.1420    1.9646 C.2       1 MOL         0.0000
     20 C20        -1.1968    0.6086    0.9531 C.2       1 MOL         0.0000
     21 C21        -2.6387    4.3880   -0.5264 C.3       1 MOL         0.0000
     22 C22         2.2335    5.8691   -3.8414 C.3       1 MOL         0.0000
     23 C23         3.4626    2.1952    1.2882 C.3       1 MOL         0.0000
     24 C24         0.2489   -0.7235   -1.2257 C.3       1 MOL         0.0000
     25 N1          3.0831    0.8338    0.9862 N.am      1 MOL         0.0000
     26 O1         -2.2110   -0.1530    1.1772 O.co2     1 MOL         0.0000
     27 O2          2.9822    0.0897    3.1800 O.2       1 MOL         0.0000
     28 O3         -0.2938    0.8368    1.8427 O.co2     1 MOL         0.0000
     29 O4         -2.1290    4.3047   -1.8730 O.3       1 MOL         0.0000
     30 O5         -2.3202    3.2335    0.2774 O.3       1 MOL         0.0000
     31 O6          1.5509    5.8367   -2.5889 O.3       1 MOL         0.0000
     32 O7          1.4364   -0.5809   -0.4581 O.3       1 MOL         0.0000
     33 H1          2.8430   -4.7297    2.4290 H         1 MOL         0.0000
     34 H2          1.5988   -5.0491    0.3075 H         1 MOL         0.0000
     35 H3          3.4283   -2.4539    3.1945 H         1 MOL         0.0000
     36 H4          0.2659    0.7526   -3.4790 H         1 MOL         0.0000
     37 H5          4.4274    2.6110   -1.2225 H         1 MOL         0.0000
     38 H6          1.3712    3.9218    1.5160 H         1 MOL         0.0000
     39 H7         -0.7570    2.9844   -3.8580 H         1 MOL         0.0000
     40 H8          0.9375   -3.0882   -1.0514 H         1 MOL         0.0000
     41 H9          3.5917    4.2014   -2.9142 H         1 MOL         0.0000
     42 H10         0.5380    5.5111   -0.1775 H         1 MOL         0.0000
     43 H11        -2.2158    5.2776   -0.0456 H         1 MOL         0.0000
     44 H12        -3.7286    4.4955   -0.5696 H         1 MOL         0.0000
     45 H13         1.7658    6.6113   -4.4930 H         1 MOL         0.0000
     46 H14         2.1901    4.8811   -4.3067 H         1 MOL         0.0000
     47 H15         3.2771    6.1437   -3.6705 H         1 MOL         0.0000
     48 H16         4.5556    2.2351    1.3491 H         1 MOL         0.0000
     49 H17         3.0724    2.4388    2.2820 H         1 MOL         0.0000
     50 H18        -0.4293   -1.4099   -0.7031 H         1 MOL         0.0000
     51 H19         0.5024   -1.1788   -2.1914 H         1 MOL         0.0000
     52 H20         3.0357    0.5744    0.0062 H         1 MOL         0.0000
@<TRIPOS>BOND
     1    1    2 ar
     2    1    3 ar
     3    2    8 ar
     4    3   11 ar
     5    4    7 ar
     6    4   14 ar
     7    5    9 ar
     8    5   13 ar
     9    6   10 ar
    10    6   13 ar
    11    7   15 ar
    12    8   18 ar
    13    9   17 ar
    14   10   17 ar
    15   11   18 ar
    16   11   19 1
    17   12   14 ar
    18   12   16 ar
    19   12   20 1
    20   13   23 1
    21   14   24 1
    22   15   16 ar
    23   15   29 1
    24   16   30 1
    25   17   31 1
    26   18   32 1
    27   19   25 am
    28   19   27 2
    29   20   26 1
    30   20   28 2
    31   21   29 1
    32   21   30 1
    33   22   31 1
    34   23   25 1
    35   24   32 1
    36    1   33 1
    37    2   34 1
    38    3   35 1
    39    4   36 1
    40    5   37 1
    41    6   38 1
    42    7   39 1
    43    8   40 1
    44    9   41 1
    45   10   42 1
    46   21   43 1
    47   21   44 1
    48   22   45 1
    49   22   46 1
    50   22   47 1
    51   23   48 1
    52   23   49 1
    53   24   50 1
    54   24   51 1
    55   25   52 1
