AVX40813_0
  -OEChem-04011315023D

 43 47  0     0  0  0  0  0  0999 V2000
   -0.6807   -0.4150    4.4298 C   0  0  0  0  0  0  0  0  0  0  0  0
    0.2280    3.2600   -3.2033 C   0  0  0  0  0  0  0  0  0  0  0  0
   -0.2908   -1.7553    4.5702 C   0  0  0  0  0  0  0  0  0  0  0  0
   -0.0873    3.8697   -2.0071 C   0  0  0  0  0  0  0  0  0  0  0  0
   -0.6598    0.2077    3.1781 C   0  0  0  0  0  0  0  0  0  0  0  0
    0.3105    1.8696   -3.2576 C   0  0  0  0  0  0  0  0  0  0  0  0
    0.1243   -2.4908    3.4602 C   0  0  0  0  0  0  0  0  0  0  0  0
   -0.2944    3.0785   -0.8808 C   0  0  0  0  0  0  0  0  0  0  0  0
   -0.3796   -4.9638   -2.1460 C   0  0  0  0  0  0  0  0  0  0  0  0
   -1.7473   -2.9866   -2.0796 C   0  0  0  0  0  0  0  0  0  0  0  0
   -1.5459   -5.7010   -2.2731 C   0  0  0  0  0  0  0  0  0  0  0  0
   -2.8524   -3.8122   -2.2099 C   0  0  0  0  0  0  0  0  0  0  0  0
   -0.2460   -0.5297    2.0790 C   0  0  0  0  0  0  0  0  0  0  0  0
    0.0873    1.0451   -2.1223 C   0  0  0  0  0  0  0  0  0  0  0  0
    0.1378   -1.8592    2.2291 C   0  0  0  0  0  0  0  0  0  0  0  0
   -0.4909   -3.5813   -2.0480 C   0  0  0  0  0  0  0  0  0  0  0  0
   -0.1944    1.6633   -0.9041 C   0  0  0  0  0  0  0  0  0  0  0  0
   -0.1122   -0.1557    0.6629 C   0  0  0  0  0  0  0  0  0  0  0  0
    0.1316   -0.4061   -2.4247 C   0  0  0  0  0  0  0  0  0  0  0  0
    0.5277   -2.4059    0.9005 C   0  0  0  0  0  0  0  0  0  0  0  0
    0.7407   -2.7341   -1.9079 C   0  0  0  0  0  0  0  0  0  0  0  0
   -2.7839   -5.1589   -2.3077 N   0  0  0  0  0  0  0  0  0  0  0  0
    0.2972   -1.2366   -0.0231 N   0  0  0  0  0  0  0  0  0  0  0  0
    0.4231   -1.3758   -1.4830 N   0  0  0  0  0  0  0  0  0  0  0  0
   -0.3849    1.0879    0.3120 N   0  3  0  0  0  0  0  0  0  0  0  0
   -0.0577   -0.7176   -3.6078 O   0  0  0  0  0  0  0  0  0  0  0  0
   -1.0019    0.1445    5.3043 H   0  0  0  0  0  0  0  0  0  0  0  0
    0.4030    3.8535   -4.0951 H   0  0  0  0  0  0  0  0  0  0  0  0
   -0.3131   -2.2221    5.5510 H   0  0  0  0  0  0  0  0  0  0  0  0
   -0.1642    4.9501   -1.9405 H   0  0  0  0  0  0  0  0  0  0  0  0
   -0.9643    1.2446    3.0912 H   0  0  0  0  0  0  0  0  0  0  0  0
    0.5578    1.4382   -4.2268 H   0  0  0  0  0  0  0  0  0  0  0  0
    0.4256   -3.5273    3.5641 H   0  0  0  0  0  0  0  0  0  0  0  0
   -0.5256    3.5873    0.0552 H   0  0  0  0  0  0  0  0  0  0  0  0
    0.5857   -5.4583   -2.1236 H   0  0  0  0  0  0  0  0  0  0  0  0
   -1.8665   -1.9111   -2.0057 H   0  0  0  0  0  0  0  0  0  0  0  0
   -1.5134   -6.7828   -2.3518 H   0  0  0  0  0  0  0  0  0  0  0  0
   -3.8545   -3.3974   -2.2397 H   0  0  0  0  0  0  0  0  0  0  0  0
    1.5862   -2.6788    0.8772 H   0  0  0  0  0  0  0  0  0  0  0  0
   -0.1262   -3.2344    0.6157 H   0  0  0  0  0  0  0  0  0  0  0  0
    1.4252   -3.1669   -1.1701 H   0  0  0  0  0  0  0  0  0  0  0  0
    1.2835   -2.6698   -2.8567 H   0  0  0  0  0  0  0  0  0  0  0  0
   -0.6794    1.7080    1.0611 H   0  0  0  0  0  0  0  0  0  0  0  0
  1  3  1  0  0  0  0
  1  5  2  0  0  0  0
  2  4  1  0  0  0  0
  2  6  2  0  0  0  0
  3  7  2  0  0  0  0
  4  8  2  0  0  0  0
  5 13  1  0  0  0  0
  6 14  1  0  0  0  0
  7 15  1  0  0  0  0
  8 17  1  0  0  0  0
  9 11  1  0  0  0  0
  9 16  2  0  0  0  0
 10 12  2  0  0  0  0
 10 16  1  0  0  0  0
 11 22  2  0  0  0  0
 12 22  1  0  0  0  0
 13 15  2  0  0  0  0
 13 18  1  0  0  0  0
 14 17  2  0  0  0  0
 14 19  1  0  0  0  0
 15 20  1  0  0  0  0
 16 21  1  0  0  0  0
 17 25  1  0  0  0  0
 18 23  1  0  0  0  0
 18 25  2  0  0  0  0
 19 24  1  0  0  0  0
 19 26  2  0  0  0  0
 20 23  1  0  0  0  0
 21 24  1  0  0  0  0
 23 24  1  0  0  0  0
  1 27  1  0  0  0  0
  2 28  1  0  0  0  0
  3 29  1  0  0  0  0
  4 30  1  0  0  0  0
  5 31  1  0  0  0  0
  6 32  1  0  0  0  0
  7 33  1  0  0  0  0
  8 34  1  0  0  0  0
  9 35  1  0  0  0  0
 10 36  1  0  0  0  0
 11 37  1  0  0  0  0
 12 38  1  0  0  0  0
 20 39  1  0  0  0  0
 20 40  1  0  0  0  0
 21 41  1  0  0  0  0
 21 42  1  0  0  0  0
 25 43  1  0  0  0  0
M  CHG  1  25   1
M  END
$$$$
