@<TRIPOS>MOLECULE
AVX40883_0
   35    38     0     0     0
SMALL
NO_CHARGES

@<TRIPOS>ATOM
      1 C1          5.0209    3.8334   -1.7289 C.ar      1 MOL         0.0000
      2 C2         -0.0953    5.4502    0.2788 C.ar      1 MOL         0.0000
      3 C3         -0.8511    5.5572    1.4488 C.ar      1 MOL         0.0000
      4 C4          5.4219    5.1226   -2.0884 C.ar      1 MOL         0.0000
      5 C5          3.1040    5.8300   -2.3433 C.ar      1 MOL         0.0000
      6 C6         -1.9294    4.3175   -0.8532 C.ar      1 MOL         0.0000
      7 C7          3.6657    3.5634   -1.6823 C.ar      1 MOL         0.0000
      8 C8         -0.6314    4.8340   -0.8656 C.ar      1 MOL         0.0000
      9 C9          2.7261    4.5481   -1.9852 C.ar      1 MOL         0.0000
     10 C10        -2.1298    5.0392    1.4347 C.ar      1 MOL         0.0000
     11 C11        -2.6545    4.4360    0.3146 C.ar      1 MOL         0.0000
     12 C12         4.4712    6.1126   -2.3929 C.ar      1 MOL         0.0000
     13 C13         1.4901    2.6615   -1.4746 C.2       1 MOL         0.0000
     14 C14        -2.5138    3.6688   -2.0379 C.2       1 MOL         0.0000
     15 C15         2.9684    2.2880   -1.3335 C.3       1 MOL         0.0000
     16 C16        -4.1442    4.3888    1.8832 C.3       1 MOL         0.0000
     17 C17         0.2200    4.7432   -2.0989 C.3       1 MOL         0.0000
     18 N1          1.4392    4.0084   -1.8607 N.am      1 MOL         0.0000
     19 O1         -3.1602    4.3922   -2.8851 O.co2     1 MOL         0.0000
     20 O2          0.5587    1.8950   -1.2774 O.2       1 MOL         0.0000
     21 O3         -2.3601    2.3990   -2.1886 O.co2     1 MOL         0.0000
     22 O4         -3.0080    5.0521    2.4742 O.3       1 MOL         0.0000
     23 O5         -3.9269    3.9956    0.5126 O.3       1 MOL         0.0000
     24 Cl1         5.0004    7.6924   -2.8324 Cl        1 MOL         0.0000
     25 H1          5.7555    3.0711   -1.4942 H         1 MOL         0.0000
     26 H2          0.9158    5.8501    0.2607 H         1 MOL         0.0000
     27 H3         -0.4416    6.0317    2.3333 H         1 MOL         0.0000
     28 H4          6.4849    5.3496   -2.1293 H         1 MOL         0.0000
     29 H5          2.3657    6.5899   -2.5776 H         1 MOL         0.0000
     30 H6          3.2132    1.4917   -2.0411 H         1 MOL         0.0000
     31 H7          3.1726    1.9902   -0.3018 H         1 MOL         0.0000
     32 H8         -4.3736    3.4937    2.4727 H         1 MOL         0.0000
     33 H9         -5.0051    5.0660    1.9217 H         1 MOL         0.0000
     34 H10        -0.3235    4.2418   -2.9072 H         1 MOL         0.0000
     35 H11         0.4948    5.7395   -2.4610 H         1 MOL         0.0000
@<TRIPOS>BOND
     1    1    4 ar
     2    1    7 ar
     3    2    3 ar
     4    2    8 ar
     5    3   10 ar
     6    4   12 ar
     7    5    9 ar
     8    5   12 ar
     9    6    8 ar
    10    6   11 ar
    11    6   14 1
    12    7    9 ar
    13    7   15 1
    14    8   17 1
    15    9   18 1
    16   10   11 ar
    17   10   22 1
    18   11   23 1
    19   12   24 1
    20   13   15 1
    21   13   18 am
    22   13   20 2
    23   14   19 1
    24   14   21 2
    25   16   22 1
    26   16   23 1
    27   17   18 1
    28    1   25 1
    29    2   26 1
    30    3   27 1
    31    4   28 1
    32    5   29 1
    33   15   30 1
    34   15   31 1
    35   16   32 1
    36   16   33 1
    37   17   34 1
    38   17   35 1
