@<TRIPOS>MOLECULE
AVX40872_0
   41    44     0     0     0
SMALL
NO_CHARGES

@<TRIPOS>ATOM
      1 C1          1.1265   -1.1707    1.4077 C.ar      1 MOL         0.0000
      2 C2          1.3714    2.9415    0.8641 C.ar      1 MOL         0.0000
      3 C3          2.1683    4.0548    1.1418 C.ar      1 MOL         0.0000
      4 C4          1.3727   -2.4440    1.9219 C.ar      1 MOL         0.0000
      5 C5          3.6610    3.5145   -0.7068 C.ar      1 MOL         0.0000
      6 C6         -0.5232   -2.0913   -0.1013 C.ar      1 MOL         0.0000
      7 C7          2.8664    2.4150   -0.9737 C.ar      1 MOL         0.0000
      8 C8          0.1764   -0.9939    0.4014 C.ar      1 MOL         0.0000
      9 C9          1.7411    2.1366   -0.1988 C.ar      1 MOL         0.0000
     10 C10         3.3036    4.3391    0.3629 C.ar      1 MOL         0.0000
     11 C11         0.6642   -3.5402    1.4290 C.ar      1 MOL         0.0000
     12 C12        -0.2678   -3.3669    0.4027 C.ar      1 MOL         0.0000
     13 C13         1.8196    0.4570   -1.7864 C.2       1 MOL         0.0000
     14 C14        -1.5217   -1.9011   -1.1733 C.2       1 MOL         0.0000
     15 C15         3.0144    1.3800   -2.0422 C.3       1 MOL         0.0000
     16 C16        -0.0671   -5.7300    1.6658 C.3       1 MOL         0.0000
     17 C17        -0.3955   -5.6740    0.1866 C.3       1 MOL         0.0000
     18 C18        -0.0697    0.3909   -0.1241 C.3       1 MOL         0.0000
     19 N1          1.1249    0.9760   -0.6847 N.am      1 MOL         0.0000
     20 N2          4.1108    5.4984    0.6746 N.4       1 MOL         0.0000
     21 O1         -2.7411   -1.6657   -0.8422 O.co2     1 MOL         0.0000
     22 O2          1.5582   -0.5383   -2.4457 O.2       1 MOL         0.0000
     23 O3         -1.1330   -1.9787   -2.3959 O.co2     1 MOL         0.0000
     24 O4          0.9354   -4.7619    1.9877 O.3       1 MOL         0.0000
     25 O5         -0.9711   -4.4077   -0.1455 O.3       1 MOL         0.0000
     26 H1          1.6779   -0.3209    1.8018 H         1 MOL         0.0000
     27 H2          0.4972    2.7302    1.4695 H         1 MOL         0.0000
     28 H3          1.8998    4.7044    1.9719 H         1 MOL         0.0000
     29 H4          2.1082   -2.5715    2.7114 H         1 MOL         0.0000
     30 H5          4.5357    3.7268   -1.3132 H         1 MOL         0.0000
     31 H6          2.9290    1.8199   -3.0393 H         1 MOL         0.0000
     32 H7          3.9433    0.8155   -1.9261 H         1 MOL         0.0000
     33 H8         -0.9523   -5.5369    2.2844 H         1 MOL         0.0000
     34 H9          0.3263   -6.7165    1.9303 H         1 MOL         0.0000
     35 H10         0.4984   -5.8249   -0.4312 H         1 MOL         0.0000
     36 H11        -1.1240   -6.4490   -0.0710 H         1 MOL         0.0000
     37 H12        -0.8370    0.3765   -0.9058 H         1 MOL         0.0000
     38 H13        -0.4268    1.0549    0.6700 H         1 MOL         0.0000
     39 H14         4.3245    6.0211   -0.1855 H         1 MOL         0.0000
     40 H15         3.6225    6.1292    1.3246 H         1 MOL         0.0000
     41 H16         4.9959    5.2089    1.1123 H         1 MOL         0.0000
@<TRIPOS>BOND
     1    1    4 ar
     2    1    8 ar
     3    2    3 ar
     4    2    9 ar
     5    3   10 ar
     6    4   11 ar
     7    5    7 ar
     8    5   10 ar
     9    6    8 ar
    10    6   12 ar
    11    6   14 1
    12    7    9 ar
    13    7   15 1
    14    8   18 1
    15    9   19 1
    16   10   20 1
    17   11   12 ar
    18   11   24 1
    19   12   25 1
    20   13   15 1
    21   13   19 am
    22   13   22 2
    23   14   21 1
    24   14   23 2
    25   16   17 1
    26   16   24 1
    27   17   25 1
    28   18   19 1
    29    1   26 1
    30    2   27 1
    31    3   28 1
    32    4   29 1
    33    5   30 1
    34   15   31 1
    35   15   32 1
    36   16   33 1
    37   16   34 1
    38   17   35 1
    39   17   36 1
    40   18   37 1
    41   18   38 1
    42   20   39 1
    43   20   40 1
    44   20   41 1
