@<TRIPOS>MOLECULE
AVX40801_0
   29    31     0     0     0
SMALL
NO_CHARGES

@<TRIPOS>ATOM
      1 C1         -0.1948   -1.2188   -1.7733 C.ar      1 MOL         0.0000
      2 C2          0.0489   -1.0083   -0.4029 C.ar      1 MOL         0.0000
      3 C3          0.9818   -9.2585   -3.1403 C.2       1 MOL         0.0000
      4 C4         -0.1402   -2.5032   -2.3253 C.ar      1 MOL         0.0000
      5 C5          0.3519   -2.0775    0.4422 C.ar      1 MOL         0.0000
      6 C6          1.4271   -7.9137   -3.1474 C.2       1 MOL         0.0000
      7 C7         -0.3751   -9.2412   -2.9036 C.2       1 MOL         0.0000
      8 C8          0.1604   -3.5565   -1.4826 C.ar      1 MOL         0.0000
      9 C9          0.4008   -3.3366   -0.1231 C.ar      1 MOL         0.0000
     10 C10         0.3289   -7.1155   -2.9147 C.2       1 MOL         0.0000
     11 C11         0.3033   -4.9945   -1.6833 C.2       1 MOL         0.0000
     12 C12         0.6440   -5.6207   -0.3620 C.2       1 MOL         0.0000
     13 C13         0.1687   -5.6938   -2.8117 C.2       1 MOL         0.0000
     14 C14        -2.1242   -7.5191   -2.5069 C.3       1 MOL         0.0000
     15 N1         -0.7609   -7.9332   -2.7677 N.pl3     1 MOL         0.0000
     16 N2          0.6826   -4.5427    0.5281 N.am      1 MOL         0.0000
     17 O1          0.8372   -6.8024   -0.1432 O.2       1 MOL         0.0000
     18 H1         -0.4282   -0.3694   -2.4102 H         1 MOL         0.0000
     19 H2          0.0012    0.0003   -0.0007 H         1 MOL         0.0000
     20 H3          1.5836  -10.1438   -3.2899 H         1 MOL         0.0000
     21 H4         -0.3291   -2.6545   -3.3823 H         1 MOL         0.0000
     22 H5          0.5403   -1.9161    1.4974 H         1 MOL         0.0000
     23 H6          2.4404   -7.5705   -3.3067 H         1 MOL         0.0000
     24 H7         -1.0918  -10.0472   -2.8197 H         1 MOL         0.0000
     25 H8         -0.0527   -5.1412   -3.7249 H         1 MOL         0.0000
     26 H9         -2.2622   -7.4760   -1.4233 H         1 MOL         0.0000
     27 H10        -2.2981   -6.5363   -2.9538 H         1 MOL         0.0000
     28 H11        -2.8131   -8.2422   -2.9527 H         1 MOL         0.0000
     29 H12         0.8882   -4.6244    1.5170 H         1 MOL         0.0000
@<TRIPOS>BOND
     1    1    2 ar
     2    1    4 ar
     3    2    5 ar
     4    3    6 1
     5    3    7 2
     6    4    8 ar
     7    5    9 ar
     8    6   10 2
     9    7   15 1
    10    8    9 ar
    11    8   11 1
    12    9   16 1
    13   10   13 1
    14   10   15 1
    15   11   12 1
    16   11   13 2
    17   12   16 am
    18   12   17 2
    19   14   15 1
    20    1   18 1
    21    2   19 1
    22    3   20 1
    23    4   21 1
    24    5   22 1
    25    6   23 1
    26    7   24 1
    27   13   25 1
    28   14   26 1
    29   14   27 1
    30   14   28 1
    31   16   29 1
