AVX40868_0
  -OEChem-04011315023D

 35 38  0     0  0  0  0  0  0999 V2000
   -0.0954    5.4501    0.2788 C   0  0  0  0  0  0  0  0  0  0  0  0
    3.1040    5.8301   -2.3431 C   0  0  0  0  0  0  0  0  0  0  0  0
   -0.8512    5.5571    1.4488 C   0  0  0  0  0  0  0  0  0  0  0  0
    4.4712    6.1126   -2.3928 C   0  0  0  0  0  0  0  0  0  0  0  0
    5.0209    3.8334   -1.7288 C   0  0  0  0  0  0  0  0  0  0  0  0
   -1.9294    4.3174   -0.8533 C   0  0  0  0  0  0  0  0  0  0  0  0
    3.6657    3.5634   -1.6823 C   0  0  0  0  0  0  0  0  0  0  0  0
   -0.6314    4.8339   -0.8656 C   0  0  0  0  0  0  0  0  0  0  0  0
    2.7261    4.5481   -1.9852 C   0  0  0  0  0  0  0  0  0  0  0  0
   -2.1299    5.0390    1.4347 C   0  0  0  0  0  0  0  0  0  0  0  0
   -2.6546    4.4359    0.3145 C   0  0  0  0  0  0  0  0  0  0  0  0
    5.4219    5.1227   -2.0883 C   0  0  0  0  0  0  0  0  0  0  0  0
    1.4901    2.6615   -1.4746 C   0  0  0  0  0  0  0  0  0  0  0  0
   -2.5138    3.6688   -2.0380 C   0  0  0  0  0  0  0  0  0  0  0  0
    2.9684    2.2879   -1.3335 C   0  0  0  0  0  0  0  0  0  0  0  0
   -4.1443    4.3886    1.8831 C   0  0  0  0  0  0  0  0  0  0  0  0
    0.2200    4.7432   -2.0989 C   0  0  0  0  0  0  0  0  0  0  0  0
    1.4392    4.0084   -1.8607 N   0  0  0  0  0  0  0  0  0  0  0  0
   -3.1602    4.3922   -2.8852 O   0  5  0  0  0  0  0  0  0  0  0  0
    0.5587    1.8950   -1.2775 O   0  0  0  0  0  0  0  0  0  0  0  0
   -2.3601    2.3990   -2.1887 O   0  0  0  0  0  0  0  0  0  0  0  0
   -3.0081    5.0519    2.4741 O   0  0  0  0  0  0  0  0  0  0  0  0
   -3.9269    3.9955    0.5125 O   0  0  0  0  0  0  0  0  0  0  0  0
    7.1004    5.5049   -2.1599 Cl  0  0  0  0  0  0  0  0  0  0  0  0
    0.9157    5.8500    0.2608 H   0  0  0  0  0  0  0  0  0  0  0  0
    2.3777    6.5993   -2.5798 H   0  0  0  0  0  0  0  0  0  0  0  0
   -0.4417    6.0315    2.3333 H   0  0  0  0  0  0  0  0  0  0  0  0
    4.7905    7.1144   -2.6719 H   0  0  0  0  0  0  0  0  0  0  0  0
    5.7448    3.0604   -1.4913 H   0  0  0  0  0  0  0  0  0  0  0  0
    3.2132    1.4918   -2.0412 H   0  0  0  0  0  0  0  0  0  0  0  0
    3.1726    1.9901   -0.3019 H   0  0  0  0  0  0  0  0  0  0  0  0
   -4.3737    3.4934    2.4725 H   0  0  0  0  0  0  0  0  0  0  0  0
   -5.0052    5.0658    1.9215 H   0  0  0  0  0  0  0  0  0  0  0  0
   -0.3235    4.2418   -2.9073 H   0  0  0  0  0  0  0  0  0  0  0  0
    0.4948    5.7395   -2.4609 H   0  0  0  0  0  0  0  0  0  0  0  0
  1  3  1  0  0  0  0
  1  8  2  0  0  0  0
  2  4  1  0  0  0  0
  2  9  2  0  0  0  0
  3 10  2  0  0  0  0
  4 12  2  0  0  0  0
  5  7  2  0  0  0  0
  5 12  1  0  0  0  0
  6  8  1  0  0  0  0
  6 11  2  0  0  0  0
  6 14  1  0  0  0  0
  7  9  1  0  0  0  0
  7 15  1  0  0  0  0
  8 17  1  0  0  0  0
  9 18  1  0  0  0  0
 10 11  1  0  0  0  0
 10 22  1  0  0  0  0
 11 23  1  0  0  0  0
 12 24  1  0  0  0  0
 13 15  1  0  0  0  0
 13 18  1  0  0  0  0
 13 20  2  0  0  0  0
 14 19  1  0  0  0  0
 14 21  2  0  0  0  0
 16 22  1  0  0  0  0
 16 23  1  0  0  0  0
 17 18  1  0  0  0  0
  1 25  1  0  0  0  0
  2 26  1  0  0  0  0
  3 27  1  0  0  0  0
  4 28  1  0  0  0  0
  5 29  1  0  0  0  0
 15 30  1  0  0  0  0
 15 31  1  0  0  0  0
 16 32  1  0  0  0  0
 16 33  1  0  0  0  0
 17 34  1  0  0  0  0
 17 35  1  0  0  0  0
M  CHG  1  19  -1
M  END
$$$$
