AVX40910_0
  -OEChem-04011315023D

 43 45  0     0  0  0  0  0  0999 V2000
    0.6153   -1.1664   -3.0582 C   0  0  0  0  0  0  0  0  0  0  0  0
   -1.7071   -1.8248   -3.1576 C   0  0  0  0  0  0  0  0  0  0  0  0
   -1.5485    1.6612    0.8915 C   0  0  0  0  0  0  0  0  0  0  0  0
    0.8345   -1.7512   -4.3054 C   0  0  0  0  0  0  0  0  0  0  0  0
   -1.4880   -2.4096   -4.4049 C   0  0  0  0  0  0  0  0  0  0  0  0
   -1.8296    2.2777    2.1131 C   0  0  0  0  0  0  0  0  0  0  0  0
   -0.6555   -1.2032   -2.4843 C   0  0  0  0  0  0  0  0  0  0  0  0
   -0.3361    0.9760    0.6979 C   0  0  0  0  0  0  0  0  0  0  0  0
    0.6093    0.8997    1.7236 C   0  0  0  0  0  0  0  0  0  0  0  0
   -0.2171   -2.3727   -4.9788 C   0  0  0  0  0  0  0  0  0  0  0  0
   -0.8794    2.1876    3.1095 C   0  0  0  0  0  0  0  0  0  0  0  0
    0.3073    1.5169    2.9201 C   0  0  0  0  0  0  0  0  0  0  0  0
   -0.8873   -0.5855   -1.1666 C   0  0  0  0  0  0  0  0  0  0  0  0
   -0.0959    0.3513   -0.5973 C   0  0  0  0  0  0  0  0  0  0  0  0
    1.8886    0.1876    1.5570 C   0  0  0  0  0  0  0  0  0  0  0  0
    0.2803    2.3127    4.9320 C   0  0  0  0  0  0  0  0  0  0  0  0
    1.0916   -4.1243   -6.2298 C   0  0  0  0  0  0  0  0  0  0  0  0
    0.5210   -1.9429   -7.3488 C   0  0  0  0  0  0  0  0  0  0  0  0
   -1.2356   -3.6617   -6.9730 C   0  0  0  0  0  0  0  0  0  0  0  0
    0.0174   -2.9958   -6.3133 C   0  0  0  0  0  0  0  0  0  0  0  0
    1.9443   -1.0620    1.8598 O   0  5  0  0  0  0  0  0  0  0  0  0
    2.9061    0.8401    1.1147 O   0  0  0  0  0  0  0  0  0  0  0  0
   -0.9778    2.7216    4.3573 O   0  0  0  0  0  0  0  0  0  0  0  0
    1.1005    1.5473    4.0254 O   0  0  0  0  0  0  0  0  0  0  0  0
    1.4450   -0.6857   -2.5453 H   0  0  0  0  0  0  0  0  0  0  0  0
   -2.7034   -1.8613   -2.7234 H   0  0  0  0  0  0  0  0  0  0  0  0
   -2.2849    1.7196    0.0928 H   0  0  0  0  0  0  0  0  0  0  0  0
    1.8277   -1.7173   -4.7453 H   0  0  0  0  0  0  0  0  0  0  0  0
   -2.3129   -2.8919   -4.9227 H   0  0  0  0  0  0  0  0  0  0  0  0
   -2.7634    2.8072    2.2657 H   0  0  0  0  0  0  0  0  0  0  0  0
   -1.7908   -0.9123   -0.6575 H   0  0  0  0  0  0  0  0  0  0  0  0
    0.7831    0.7081   -1.1422 H   0  0  0  0  0  0  0  0  0  0  0  0
    0.8344    3.2079    5.2369 H   0  0  0  0  0  0  0  0  0  0  0  0
    0.0780    1.7040    5.8208 H   0  0  0  0  0  0  0  0  0  0  0  0
    1.2831   -4.5995   -7.1990 H   0  0  0  0  0  0  0  0  0  0  0  0
    2.0509   -3.7391   -5.8673 H   0  0  0  0  0  0  0  0  0  0  0  0
    0.7666   -4.9062   -5.5332 H   0  0  0  0  0  0  0  0  0  0  0  0
    0.6945   -2.3968   -8.3306 H   0  0  0  0  0  0  0  0  0  0  0  0
   -0.1893   -1.1211   -7.4971 H   0  0  0  0  0  0  0  0  0  0  0  0
    1.4703   -1.5072   -7.0154 H   0  0  0  0  0  0  0  0  0  0  0  0
   -1.0128   -4.1051   -7.9511 H   0  0  0  0  0  0  0  0  0  0  0  0
   -1.6302   -4.4641   -6.3387 H   0  0  0  0  0  0  0  0  0  0  0  0
   -2.0326   -2.9251   -7.1276 H   0  0  0  0  0  0  0  0  0  0  0  0
  1  4  1  0  0  0  0
  1  7  2  0  0  0  0
  2  5  2  0  0  0  0
  2  7  1  0  0  0  0
  3  6  2  0  0  0  0
  3  8  1  0  0  0  0
  4 10  2  0  0  0  0
  5 10  1  0  0  0  0
  6 11  1  0  0  0  0
  7 13  1  0  0  0  0
  8  9  2  0  0  0  0
  8 14  1  0  0  0  0
  9 12  1  0  0  0  0
  9 15  1  0  0  0  0
 10 20  1  0  0  0  0
 11 12  2  0  0  0  0
 11 23  1  0  0  0  0
 12 24  1  0  0  0  0
 13 14  2  0  0  0  0
 15 21  1  0  0  0  0
 15 22  2  0  0  0  0
 16 23  1  0  0  0  0
 16 24  1  0  0  0  0
 17 20  1  0  0  0  0
 18 20  1  0  0  0  0
 19 20  1  0  0  0  0
  1 25  1  0  0  0  0
  2 26  1  0  0  0  0
  3 27  1  0  0  0  0
  4 28  1  0  0  0  0
  5 29  1  0  0  0  0
  6 30  1  0  0  0  0
 13 31  1  0  0  0  0
 14 32  1  0  0  0  0
 16 33  1  0  0  0  0
 16 34  1  0  0  0  0
 17 35  1  0  0  0  0
 17 36  1  0  0  0  0
 17 37  1  0  0  0  0
 18 38  1  0  0  0  0
 18 39  1  0  0  0  0
 18 40  1  0  0  0  0
 19 41  1  0  0  0  0
 19 42  1  0  0  0  0
 19 43  1  0  0  0  0
M  CHG  1  21  -1
M  END
$$$$
