@<TRIPOS>MOLECULE
AVX40916_2
   46    47     0     0     0
SMALL
NO_CHARGES

@<TRIPOS>ATOM
      1 C1          4.7660   -0.0773    4.8517 C.ar      1 MOL         0.0000
      2 C2          6.1176   -0.3999    4.9728 C.ar      1 MOL         0.0000
      3 C3          4.5105   -1.7821    3.1590 C.ar      1 MOL         0.0000
      4 C4          3.9624   -0.7684    3.9449 C.ar      1 MOL         0.0000
      5 C5          6.6657   -1.4137    4.1869 C.ar      1 MOL         0.0000
      6 C6          5.8622   -2.1048    3.2800 C.ar      1 MOL         0.0000
      7 C7          3.6637   -2.5145    2.1964 C.2       1 MOL         0.0000
      8 C8          7.4814   -3.9710    0.5886 C.2       1 MOL         0.0000
      9 C9          1.3982    2.7165    1.0084 C.3       1 MOL         0.0000
     10 C10         2.8607    2.3502    1.2101 C.3       1 MOL         0.0000
     11 C11         0.5108    1.4837    1.1190 C.3       1 MOL         0.0000
     12 C12         3.0735    1.6268    2.5291 C.3       1 MOL         0.0000
     13 C13         0.7142    0.7371    2.4436 C.3       1 MOL         0.0000
     14 C14        -0.1387   -0.5299    2.4591 C.3       1 MOL         0.0000
     15 C15         8.7367   -0.9634    5.2657 C.3       1 MOL         0.0000
     16 C16         2.5122   -0.3996    3.8365 C.3       1 MOL         0.0000
     17 C17         6.9482   -2.7122    1.2534 C.3       1 MOL         0.0000
     18 N1          2.1946    0.3922    2.5909 N.4       1 MOL         0.0000
     19 O1          3.0574   -3.5762    2.5941 O.co2     1 MOL         0.0000
     20 O2          6.6258   -4.8811    0.3999 O.co2     1 MOL         0.0000
     21 O3          3.5647   -2.0632    0.9966 O.co2     1 MOL         0.0000
     22 O4          8.7111   -3.9460    0.3022 O.co2     1 MOL         0.0000
     23 O5          7.9873   -1.7182    4.3156 O.3       1 MOL         0.0000
     24 O6          6.4066   -3.0946    2.5152 O.3       1 MOL         0.0000
     25 H1          4.3482    0.7140    5.4686 H         1 MOL         0.0000
     26 H2          6.7382    0.1420    5.6812 H         1 MOL         0.0000
     27 H3          1.0954    3.4564    1.7594 H         1 MOL         0.0000
     28 H4          1.2641    3.1832    0.0262 H         1 MOL         0.0000
     29 H5          3.1987    1.7156    0.3814 H         1 MOL         0.0000
     30 H6          3.4739    3.2579    1.1864 H         1 MOL         0.0000
     31 H7         -0.5381    1.7897    1.0245 H         1 MOL         0.0000
     32 H8          0.7199    0.8130    0.2752 H         1 MOL         0.0000
     33 H9          4.1136    1.2954    2.6155 H         1 MOL         0.0000
     34 H10         2.8179    2.2577    3.3879 H         1 MOL         0.0000
     35 H11         0.4515    1.3808    3.2920 H         1 MOL         0.0000
     36 H12         0.1270   -1.1638    1.6148 H         1 MOL         0.0000
     37 H13        -1.1926   -0.2660    2.3892 H         1 MOL         0.0000
     38 H14         0.0315   -1.0779    3.3843 H         1 MOL         0.0000
     39 H15         9.7742   -1.3067    5.2682 H         1 MOL         0.0000
     40 H16         8.2981   -1.0880    6.2589 H         1 MOL         0.0000
     41 H17         8.7053    0.0922    4.9855 H         1 MOL         0.0000
     42 H18         1.8775   -1.2919    3.8122 H         1 MOL         0.0000
     43 H19         2.1950    0.2124    4.6877 H         1 MOL         0.0000
     44 H20         6.1591   -2.2651    0.6411 H         1 MOL         0.0000
     45 H21         7.7419   -1.9761    1.4130 H         1 MOL         0.0000
     46 H22         2.4541   -0.2025    1.7917 H         1 MOL         0.0000
@<TRIPOS>BOND
     1    1    2 ar
     2    1    4 ar
     3    2    5 ar
     4    3    4 ar
     5    3    6 ar
     6    3    7 1
     7    4   16 1
     8    5    6 ar
     9    5   23 1
    10    6   24 1
    11    7   19 1
    12    7   21 2
    13    8   17 1
    14    8   20 1
    15    8   22 2
    16    9   10 1
    17    9   11 1
    18   10   12 1
    19   11   13 1
    20   12   18 1
    21   13   14 1
    22   13   18 1
    23   15   23 1
    24   16   18 1
    25   17   24 1
    26    1   25 1
    27    2   26 1
    28    9   27 1
    29    9   28 1
    30   10   29 1
    31   10   30 1
    32   11   31 1
    33   11   32 1
    34   12   33 1
    35   12   34 1
    36   13   35 1
    37   14   36 1
    38   14   37 1
    39   14   38 1
    40   15   39 1
    41   15   40 1
    42   15   41 1
    43   16   42 1
    44   16   43 1
    45   17   44 1
    46   17   45 1
    47   18   46 1
