@<TRIPOS>MOLECULE
AVX40915_1
   46    47     0     0     0
SMALL
NO_CHARGES

@<TRIPOS>ATOM
      1 C1          3.8246   -2.4736   -1.6386 C.ar      1 MOL         0.0000
      2 C2          4.5374   -1.3211   -1.3082 C.ar      1 MOL         0.0000
      3 C3          2.6896   -2.3847   -2.4445 C.ar      1 MOL         0.0000
      4 C4          4.1152   -0.0796   -1.7837 C.ar      1 MOL         0.0000
      5 C5          2.2674   -1.1433   -2.9200 C.ar      1 MOL         0.0000
      6 C6         -1.7466    2.9312   -1.7854 C.ar      1 MOL         0.0000
      7 C7         -2.6634    3.5093   -0.9075 C.ar      1 MOL         0.0000
      8 C8         -0.7439    1.7278    0.0541 C.ar      1 MOL         0.0000
      9 C9          2.9801    0.0093   -2.5896 C.ar      1 MOL         0.0000
     10 C10        -0.7868    2.0404   -1.3046 C.ar      1 MOL         0.0000
     11 C11        -2.6205    3.1967    0.4512 C.ar      1 MOL         0.0000
     12 C12        -1.6607    2.3060    0.9320 C.ar      1 MOL         0.0000
     13 C13         0.2719    0.7870    0.5672 C.2       1 MOL         0.0000
     14 C14        -5.6278    3.5647    2.3756 C.2       1 MOL         0.0000
     15 C15         1.5462    3.5196   -2.3805 C.3       1 MOL         0.0000
     16 C16        -2.4083    0.8964    2.6956 C.3       1 MOL         0.0000
     17 C17         2.5253    1.3444   -3.1012 C.3       1 MOL         0.0000
     18 C18         0.1862    1.4340   -2.2724 C.3       1 MOL         0.0000
     19 C19        -4.9022    3.5164    1.0407 C.3       1 MOL         0.0000
     20 N1          1.5610    2.0315   -2.1768 N.4       1 MOL         0.0000
     21 O1         -0.0138   -0.4659    0.6055 O.co2     1 MOL         0.0000
     22 O2         -5.5283    4.6582    3.0005 O.co2     1 MOL         0.0000
     23 O3          1.4038    1.2562    0.9566 O.co2     1 MOL         0.0000
     24 O4         -6.2446    2.5082    2.6889 O.co2     1 MOL         0.0000
     25 O5         -1.6258    2.0062    2.2624 O.3       1 MOL         0.0000
     26 O6         -3.5222    3.7688    1.2973 O.3       1 MOL         0.0000
     27 H1          4.1543   -3.4404   -1.2694 H         1 MOL         0.0000
     28 H2          5.4218   -1.3902   -0.6816 H         1 MOL         0.0000
     29 H3          2.1351   -3.2820   -2.7029 H         1 MOL         0.0000
     30 H4          4.6767    0.8131   -1.5210 H         1 MOL         0.0000
     31 H5          1.3818   -1.0836   -3.5473 H         1 MOL         0.0000
     32 H6         -1.7882    3.1808   -2.8423 H         1 MOL         0.0000
     33 H7         -3.4087    4.2023   -1.2883 H         1 MOL         0.0000
     34 H8          1.1941    3.7143   -3.3952 H         1 MOL         0.0000
     35 H9          0.8697    3.9515   -1.6406 H         1 MOL         0.0000
     36 H10         2.5652    3.8860   -2.2418 H         1 MOL         0.0000
     37 H11        -2.2915    0.7661    3.7742 H         1 MOL         0.0000
     38 H12        -2.0836   -0.0061    2.1715 H         1 MOL         0.0000
     39 H13        -3.4586    1.0908    2.4659 H         1 MOL         0.0000
     40 H14         3.3719    2.0261   -3.2360 H         1 MOL         0.0000
     41 H15         2.0189    1.2460   -4.0675 H         1 MOL         0.0000
     42 H16         0.2981    0.3582   -2.0996 H         1 MOL         0.0000
     43 H17        -0.1460    1.5731   -3.3068 H         1 MOL         0.0000
     44 H18        -5.2924    4.2868    0.3688 H         1 MOL         0.0000
     45 H19        -5.0041    2.5366    0.5642 H         1 MOL         0.0000
     46 H20         1.8945    1.8653   -1.2177 H         1 MOL         0.0000
@<TRIPOS>BOND
     1    1    2 ar
     2    1    3 ar
     3    2    4 ar
     4    3    5 ar
     5    4    9 ar
     6    5    9 ar
     7    6    7 ar
     8    6   10 ar
     9    7   11 ar
    10    8   10 ar
    11    8   12 ar
    12    8   13 1
    13    9   17 1
    14   10   18 1
    15   11   12 ar
    16   11   26 1
    17   12   25 1
    18   13   21 1
    19   13   23 2
    20   14   19 1
    21   14   22 1
    22   14   24 2
    23   15   20 1
    24   16   25 1
    25   17   20 1
    26   18   20 1
    27   19   26 1
    28    1   27 1
    29    2   28 1
    30    3   29 1
    31    4   30 1
    32    5   31 1
    33    6   32 1
    34    7   33 1
    35   15   34 1
    36   15   35 1
    37   15   36 1
    38   16   37 1
    39   16   38 1
    40   16   39 1
    41   17   40 1
    42   17   41 1
    43   18   42 1
    44   18   43 1
    45   19   44 1
    46   19   45 1
    47   20   46 1
