AVX62525_0
  -OEChem-04011315033D

 31 33  0     1  0  0  0  0  0999 V2000
    7.9524   -2.5971   -1.7006 C   0  0  0  0  0  0  0  0  0  0  0  0
    7.6867   -3.9708   -1.5514 C   0  0  0  0  0  0  0  0  0  0  0  0
    6.9091   -1.6691   -1.7827 C   0  0  0  0  0  0  0  0  0  0  0  0
    6.3739   -4.4404   -1.4827 C   0  0  0  0  0  0  0  0  0  0  0  0
    5.6114   -2.1403   -1.7099 C   0  0  0  0  0  0  0  0  0  0  0  0
    5.3632   -3.5038   -1.5662 C   0  0  0  0  0  0  0  0  0  0  0  0
    3.2762   -2.5338   -1.6282 C   0  0  0  0  0  0  0  0  0  0  0  0
    2.7325    2.7512   -2.1169 C   0  0  0  0  0  0  0  0  0  0  0  0
    3.4526    1.4443   -2.3354 C   0  0  0  0  0  0  0  0  0  0  0  0
    2.9452    2.9819   -0.6357 C   0  0  0  0  0  0  0  0  0  0  0  0
    4.3072   -1.3985   -1.7815 C   0  0  1  0  0  0  0  0  0  0  0  0
    3.1159    0.6960   -1.0571 C   0  0  1  0  0  0  0  0  0  0  0  0
    4.1395   -0.3595   -0.6862 C   0  0  0  0  0  0  0  0  0  0  0  0
    3.9926   -3.7307   -1.5196 N   0  0  0  0  0  0  0  0  0  0  0  0
    2.0626   -2.3949   -1.6085 O   0  0  0  0  0  0  0  0  0  0  0  0
    3.0405    1.6887   -0.0199 O   0  0  0  0  0  0  0  0  0  0  0  0
    8.9824   -2.2544   -1.7541 H   0  0  0  0  0  0  0  0  0  0  0  0
    8.5143   -4.6724   -1.4897 H   0  0  0  0  0  0  0  0  0  0  0  0
    7.1199   -0.6122   -1.9024 H   0  0  0  0  0  0  0  0  0  0  0  0
    6.1659   -5.4980   -1.3688 H   0  0  0  0  0  0  0  0  0  0  0  0
    3.1088    3.5704   -2.7350 H   0  0  0  0  0  0  0  0  0  0  0  0
    1.6635    2.6266   -2.3266 H   0  0  0  0  0  0  0  0  0  0  0  0
    3.1289    0.9151   -3.2358 H   0  0  0  0  0  0  0  0  0  0  0  0
    4.5313    1.6274   -2.4126 H   0  0  0  0  0  0  0  0  0  0  0  0
    3.8865    3.5094   -0.4483 H   0  0  0  0  0  0  0  0  0  0  0  0
    2.1300    3.5492   -0.1778 H   0  0  0  0  0  0  0  0  0  0  0  0
    4.1844   -0.9569   -2.7767 H   0  0  0  0  0  0  0  0  0  0  0  0
    2.1282    0.2299   -1.1355 H   0  0  0  0  0  0  0  0  0  0  0  0
    3.8291   -0.8533    0.2416 H   0  0  0  0  0  0  0  0  0  0  0  0
    5.1030    0.1248   -0.4913 H   0  0  0  0  0  0  0  0  0  0  0  0
    3.5672   -4.6449   -1.4199 H   0  0  0  0  0  0  0  0  0  0  0  0
  1  2  2  0  0  0  0
  1  3  1  0  0  0  0
  2  4  1  0  0  0  0
  3  5  2  0  0  0  0
  4  6  2  0  0  0  0
  5  6  1  0  0  0  0
  5 11  1  0  0  0  0
  6 14  1  0  0  0  0
  7 11  1  0  0  0  0
  7 14  1  0  0  0  0
  7 15  2  0  0  0  0
  8  9  1  0  0  0  0
  8 10  1  0  0  0  0
  9 12  1  0  0  0  0
 10 16  1  0  0  0  0
 11 13  1  0  0  0  0
 12 13  1  0  0  0  0
 12 16  1  0  0  0  0
  1 17  1  0  0  0  0
  2 18  1  0  0  0  0
  3 19  1  0  0  0  0
  4 20  1  0  0  0  0
  8 21  1  0  0  0  0
  8 22  1  0  0  0  0
  9 23  1  0  0  0  0
  9 24  1  0  0  0  0
 10 25  1  0  0  0  0
 10 26  1  0  0  0  0
 11 27  1  0  0  0  0
 12 28  1  0  0  0  0
 13 29  1  0  0  0  0
 13 30  1  0  0  0  0
 14 31  1  0  0  0  0
M  END
$$$$
