@<TRIPOS>MOLECULE
AVX62777_0
   47    50     0     0     0
SMALL
NO_CHARGES

@<TRIPOS>ATOM
      1 C1          1.4794   -4.1242    2.5910 C.ar      1 MOL         0.0000
      2 C2          2.1650   -2.9146    2.4794 C.ar      1 MOL         0.0000
      3 C3          0.4811   -4.4474    1.6719 C.ar      1 MOL         0.0000
      4 C4          1.8524   -2.0283    1.4488 C.ar      1 MOL         0.0000
      5 C5          0.1685   -3.5610    0.6413 C.ar      1 MOL         0.0000
      6 C6         -1.0935   -0.1030    1.8271 C.ar      1 MOL         0.0000
      7 C7         -1.3530    0.4583    3.0797 C.ar      1 MOL         0.0000
      8 C8          5.1236   -1.6985   -4.0452 C.ar      1 MOL         0.0000
      9 C9          4.6941   -3.3168   -2.3186 C.ar      1 MOL         0.0000
     10 C10         6.3408   -2.3261   -4.2558 C.ar      1 MOL         0.0000
     11 C11         5.9304   -3.8721   -2.6067 C.ar      1 MOL         0.0000
     12 C12         0.8542   -2.3514    0.5297 C.ar      1 MOL         0.0000
     13 C13        -0.1481    0.4787    0.9641 C.ar      1 MOL         0.0000
     14 C14         4.2904   -2.2094   -3.0562 C.ar      1 MOL         0.0000
     15 C15         0.5485    1.6286    1.3437 C.ar      1 MOL         0.0000
     16 C16        -0.6516    1.5936    3.4303 C.ar      1 MOL         0.0000
     17 C17         0.2737    2.1630    2.5857 C.ar      1 MOL         0.0000
     18 C18         0.0823   -0.1497   -0.3310 C.2       1 MOL         0.0000
     19 C19         0.5220   -1.4112   -0.5642 C.2       1 MOL         0.0000
     20 C20         2.9739   -1.5749   -2.7892 C.2       1 MOL         0.0000
     21 C21         1.5481    2.2630    0.4664 C.2       1 MOL         0.0000
     22 C22         0.1843    3.3377    4.4006 C.3       1 MOL         0.0000
     23 C23         0.6598   -1.9438   -1.9738 C.3       1 MOL         0.0000
     24 N1          6.7672   -3.4036   -3.5596 N.ar      1 MOL         0.0000
     25 N2          2.0128   -2.4119   -2.2673 N.am      1 MOL         0.0000
     26 O1          2.7761    1.8882    0.5565 O.co2     1 MOL         0.0000
     27 O2          2.8148   -0.3871   -3.0581 O.2       1 MOL         0.0000
     28 O3          1.1587    3.1702   -0.3594 O.co2     1 MOL         0.0000
     29 O4         -0.7698    2.2750    4.6024 O.3       1 MOL         0.0000
     30 O5          0.8505    3.2723    3.1230 O.3       1 MOL         0.0000
     31 H1          1.7236   -4.8149    3.3927 H         1 MOL         0.0000
     32 H2          2.9432   -2.6632    3.1943 H         1 MOL         0.0000
     33 H3         -0.0520   -5.3897    1.7580 H         1 MOL         0.0000
     34 H4          2.3957   -1.0891    1.3749 H         1 MOL         0.0000
     35 H5         -0.6121   -3.8273   -0.0674 H         1 MOL         0.0000
     36 H6         -1.6352   -0.9991    1.5315 H         1 MOL         0.0000
     37 H7         -2.0816    0.0125    3.7475 H         1 MOL         0.0000
     38 H8          4.8391   -0.8368   -4.6399 H         1 MOL         0.0000
     39 H9          4.0680   -3.7405   -1.5406 H         1 MOL         0.0000
     40 H10         7.0265   -1.9671   -5.0159 H         1 MOL         0.0000
     41 H11         6.2918   -4.7365   -2.0598 H         1 MOL         0.0000
     42 H12        -0.1273    0.4943   -1.1892 H         1 MOL         0.0000
     43 H13        -0.3388    4.2980    4.4755 H         1 MOL         0.0000
     44 H14         0.9396    3.2853    5.1931 H         1 MOL         0.0000
     45 H15         0.3928   -1.1770   -2.7109 H         1 MOL         0.0000
     46 H16        -0.0433   -2.7702   -2.1284 H         1 MOL         0.0000
     47 H17         2.1844   -3.3946   -2.1265 H         1 MOL         0.0000
@<TRIPOS>BOND
     1    1    2 ar
     2    1    3 ar
     3    2    4 ar
     4    3    5 ar
     5    4   12 ar
     6    5   12 ar
     7    6    7 ar
     8    6   13 ar
     9    7   16 ar
    10    8   10 ar
    11    8   14 ar
    12    9   11 ar
    13    9   14 ar
    14   10   24 ar
    15   11   24 ar
    16   12   19 1
    17   13   15 ar
    18   13   18 1
    19   14   20 1
    20   15   17 ar
    21   15   21 1
    22   16   17 ar
    23   16   29 1
    24   17   30 1
    25   18   19 2
    26   19   23 1
    27   20   25 am
    28   20   27 2
    29   21   26 1
    30   21   28 2
    31   22   29 1
    32   22   30 1
    33   23   25 1
    34    1   31 1
    35    2   32 1
    36    3   33 1
    37    4   34 1
    38    5   35 1
    39    6   36 1
    40    7   37 1
    41    8   38 1
    42    9   39 1
    43   10   40 1
    44   11   41 1
    45   18   42 1
    46   22   43 1
    47   22   44 1
    48   23   45 1
    49   23   46 1
    50   25   47 1
