@<TRIPOS>MOLECULE
AVX62530_0
   32    34     0     0     0
SMALL
NO_CHARGES

@<TRIPOS>ATOM
      1 C1          0.3519   -2.0775    0.4422 C.ar      1 MOL         0.0000
      2 C2          0.0489   -1.0083   -0.4029 C.ar      1 MOL         0.0000
      3 C3         -0.1402   -2.5032   -2.3253 C.ar      1 MOL         0.0000
      4 C4          0.9181   -9.2778   -3.1311 C.2       1 MOL         0.0000
      5 C5          0.1604   -3.5565   -1.4826 C.ar      1 MOL         0.0000
      6 C6          1.4029   -7.9467   -3.1448 C.2       1 MOL         0.0000
      7 C7          0.4008   -3.3366   -0.1231 C.ar      1 MOL         0.0000
      8 C8         -0.1948   -1.2188   -1.7733 C.ar      1 MOL         0.0000
      9 C9          0.3290   -7.1154   -2.9147 C.2       1 MOL         0.0000
     10 C10        -0.4374   -9.2194   -2.8931 C.2       1 MOL         0.0000
     11 C11         0.3033   -4.9945   -1.6833 C.2       1 MOL         0.0000
     12 C12         0.6440   -5.6207   -0.3620 C.2       1 MOL         0.0000
     13 C13         0.1688   -5.6938   -2.8118 C.2       1 MOL         0.0000
     14 C14         2.8048   -7.5378   -3.3661 C.3       1 MOL         0.0000
     15 C15        -1.4422  -10.2921   -2.7756 C.3       1 MOL         0.0000
     16 N1         -0.7845   -7.9000   -2.7635 N.pl3     1 MOL         0.0000
     17 N2          0.6826   -4.5427    0.5281 N.am      1 MOL         0.0000
     18 O1          0.8373   -6.8024   -0.1432 O.2       1 MOL         0.0000
     19 Br1        -0.6014    0.2587   -2.8840 Br        1 MOL         0.0000
     20 H1          0.5402   -1.9167    1.4975 H         1 MOL         0.0000
     21 H2          0.0048   -0.0057    0.0168 H         1 MOL         0.0000
     22 H3         -0.3271   -2.6707   -3.3812 H         1 MOL         0.0000
     23 H4          1.4933  -10.1820   -3.2785 H         1 MOL         0.0000
     24 H5         -0.0525   -5.1411   -3.7249 H         1 MOL         0.0000
     25 H6          3.0058   -7.3748   -4.4372 H         1 MOL         0.0000
     26 H7          3.0520   -6.6049   -2.8321 H         1 MOL         0.0000
     27 H8          3.5184   -8.2963   -3.0020 H         1 MOL         0.0000
     28 H9         -1.5387  -10.6358   -1.7321 H         1 MOL         0.0000
     29 H10        -2.4410   -9.9644   -3.1128 H         1 MOL         0.0000
     30 H11        -1.1864  -11.1703   -3.3940 H         1 MOL         0.0000
     31 H12        -1.7210   -7.5629   -2.5838 H         1 MOL         0.0000
     32 H13         0.8882   -4.6244    1.5168 H         1 MOL         0.0000
@<TRIPOS>BOND
     1    1    2 ar
     2    1    7 ar
     3    2    8 ar
     4    3    5 ar
     5    3    8 ar
     6    4    6 1
     7    4   10 2
     8    5    7 ar
     9    5   11 1
    10    6    9 2
    11    6   14 1
    12    7   17 1
    13    8   19 1
    14    9   13 1
    15    9   16 1
    16   10   15 1
    17   10   16 1
    18   11   12 1
    19   11   13 2
    20   12   17 am
    21   12   18 2
    22    1   20 1
    23    2   21 1
    24    3   22 1
    25    4   23 1
    26   13   24 1
    27   14   25 1
    28   14   26 1
    29   14   27 1
    30   15   28 1
    31   15   29 1
    32   15   30 1
    33   16   31 1
    34   17   32 1
