AVX62524_0
  -OEChem-04011315033D

 32 34  0     0  0  0  0  0  0999 V2000
   -0.1948   -1.2188   -1.7733 C   0  0  0  0  0  0  0  0  0  0  0  0
    0.0489   -1.0083   -0.4029 C   0  0  0  0  0  0  0  0  0  0  0  0
   -0.1402   -2.5032   -2.3253 C   0  0  0  0  0  0  0  0  0  0  0  0
    0.3519   -2.0775    0.4422 C   0  0  0  0  0  0  0  0  0  0  0  0
    0.9180   -9.2778   -3.1311 C   0  0  0  0  0  0  0  0  0  0  0  0
    0.1604   -3.5565   -1.4826 C   0  0  0  0  0  0  0  0  0  0  0  0
    1.4028   -7.9467   -3.1449 C   0  0  0  0  0  0  0  0  0  0  0  0
    0.4008   -3.3366   -0.1231 C   0  0  0  0  0  0  0  0  0  0  0  0
    0.3289   -7.1155   -2.9147 C   0  0  0  0  0  0  0  0  0  0  0  0
   -0.4375   -9.2195   -2.8930 C   0  0  0  0  0  0  0  0  0  0  0  0
    0.3033   -4.9945   -1.6833 C   0  0  0  0  0  0  0  0  0  0  0  0
    0.6440   -5.6207   -0.3620 C   0  0  0  0  0  0  0  0  0  0  0  0
    0.1687   -5.6938   -2.8117 C   0  0  0  0  0  0  0  0  0  0  0  0
    2.8047   -7.5378   -3.3663 C   0  0  0  0  0  0  0  0  0  0  0  0
   -1.4422  -10.2922   -2.7755 C   0  0  0  0  0  0  0  0  0  0  0  0
   -0.7845   -7.9001   -2.7633 N   0  0  0  0  0  0  0  0  0  0  0  0
    0.6826   -4.5427    0.5281 N   0  0  0  0  0  0  0  0  0  0  0  0
    0.8372   -6.8024   -0.1432 O   0  0  0  0  0  0  0  0  0  0  0  0
   -0.4282   -0.3694   -2.4102 H   0  0  0  0  0  0  0  0  0  0  0  0
    0.0012    0.0003   -0.0007 H   0  0  0  0  0  0  0  0  0  0  0  0
   -0.3291   -2.6545   -3.3823 H   0  0  0  0  0  0  0  0  0  0  0  0
    0.5403   -1.9161    1.4974 H   0  0  0  0  0  0  0  0  0  0  0  0
    1.4932  -10.1820   -3.2786 H   0  0  0  0  0  0  0  0  0  0  0  0
   -0.0527   -5.1412   -3.7249 H   0  0  0  0  0  0  0  0  0  0  0  0
    3.0056   -7.3747   -4.4375 H   0  0  0  0  0  0  0  0  0  0  0  0
    3.0519   -6.6049   -2.8323 H   0  0  0  0  0  0  0  0  0  0  0  0
    3.5183   -8.2963   -3.0023 H   0  0  0  0  0  0  0  0  0  0  0  0
   -1.5386  -10.6358   -1.7319 H   0  0  0  0  0  0  0  0  0  0  0  0
   -2.4411   -9.9645   -3.1126 H   0  0  0  0  0  0  0  0  0  0  0  0
   -1.1865  -11.1704   -3.3939 H   0  0  0  0  0  0  0  0  0  0  0  0
   -1.7211   -7.5629   -2.5836 H   0  0  0  0  0  0  0  0  0  0  0  0
    0.8882   -4.6244    1.5170 H   0  0  0  0  0  0  0  0  0  0  0  0
  1  2  2  0  0  0  0
  1  3  1  0  0  0  0
  2  4  1  0  0  0  0
  3  6  2  0  0  0  0
  4  8  2  0  0  0  0
  5  7  1  0  0  0  0
  5 10  2  0  0  0  0
  6  8  1  0  0  0  0
  6 11  1  0  0  0  0
  7  9  2  0  0  0  0
  7 14  1  0  0  0  0
  8 17  1  0  0  0  0
  9 13  1  0  0  0  0
  9 16  1  0  0  0  0
 10 15  1  0  0  0  0
 10 16  1  0  0  0  0
 11 12  1  0  0  0  0
 11 13  2  0  0  0  0
 12 17  1  0  0  0  0
 12 18  2  0  0  0  0
  1 19  1  0  0  0  0
  2 20  1  0  0  0  0
  3 21  1  0  0  0  0
  4 22  1  0  0  0  0
  5 23  1  0  0  0  0
 13 24  1  0  0  0  0
 14 25  1  0  0  0  0
 14 26  1  0  0  0  0
 14 27  1  0  0  0  0
 15 28  1  0  0  0  0
 15 29  1  0  0  0  0
 15 30  1  0  0  0  0
 16 31  1  0  0  0  0
 17 32  1  0  0  0  0
M  END
$$$$
