AVX62525_2
  -OEChem-04011315033D

 31 33  0     1  0  0  0  0  0999 V2000
    0.0958   -8.2853    2.6429 C   0  0  0  0  0  0  0  0  0  0  0  0
   -1.2787   -8.5554    2.7750 C   0  0  0  0  0  0  0  0  0  0  0  0
    0.5431   -7.1812    1.9100 C   0  0  0  0  0  0  0  0  0  0  0  0
   -2.2296   -7.7272    2.1762 C   0  0  0  0  0  0  0  0  0  0  0  0
   -0.4039   -6.3626    1.3228 C   0  0  0  0  0  0  0  0  0  0  0  0
   -1.7616   -6.6446    1.4588 C   0  0  0  0  0  0  0  0  0  0  0  0
   -1.6875   -4.7348    0.1753 C   0  0  0  0  0  0  0  0  0  0  0  0
    2.8609   -1.5148   -0.2011 C   0  0  0  0  0  0  0  0  0  0  0  0
    1.8876   -1.9016    0.8839 C   0  0  0  0  0  0  0  0  0  0  0  0
    3.2041   -2.8590   -0.8072 C   0  0  0  0  0  0  0  0  0  0  0  0
   -0.2298   -5.1326    0.4784 C   0  0  1  0  0  0  0  0  0  0  0  0
    1.1141   -3.0223    0.2111 C   0  0  2  0  0  0  0  0  0  0  0  0
    0.5047   -4.0085    1.1886 C   0  0  0  0  0  0  0  0  0  0  0  0
   -2.5112   -5.6883    0.7836 N   0  0  0  0  0  0  0  0  0  0  0  0
   -2.0390   -3.7640   -0.4778 O   0  0  0  0  0  0  0  0  0  0  0  0
    2.0513   -3.6986   -0.6439 O   0  0  0  0  0  0  0  0  0  0  0  0
    0.8183   -8.9452    3.1158 H   0  0  0  0  0  0  0  0  0  0  0  0
   -1.6016   -9.4194    3.3498 H   0  0  0  0  0  0  0  0  0  0  0  0
    1.6038   -6.9808    1.8076 H   0  0  0  0  0  0  0  0  0  0  0  0
   -3.2890   -7.9331    2.2754 H   0  0  0  0  0  0  0  0  0  0  0  0
    2.3579   -0.8860   -0.9453 H   0  0  0  0  0  0  0  0  0  0  0  0
    3.7379   -0.9752    0.1654 H   0  0  0  0  0  0  0  0  0  0  0  0
    2.4385   -2.2716    1.7571 H   0  0  0  0  0  0  0  0  0  0  0  0
    1.2465   -1.0767    1.2069 H   0  0  0  0  0  0  0  0  0  0  0  0
    3.4614   -2.7880   -1.8678 H   0  0  0  0  0  0  0  0  0  0  0  0
    4.0374   -3.3315   -0.2764 H   0  0  0  0  0  0  0  0  0  0  0  0
    0.2567   -5.3961   -0.4673 H   0  0  0  0  0  0  0  0  0  0  0  0
    0.3253   -2.6127   -0.4284 H   0  0  0  0  0  0  0  0  0  0  0  0
   -0.1899   -3.4786    1.8502 H   0  0  0  0  0  0  0  0  0  0  0  0
    1.2970   -4.4297    1.8176 H   0  0  0  0  0  0  0  0  0  0  0  0
   -3.5234   -5.6825    0.7379 H   0  0  0  0  0  0  0  0  0  0  0  0
  1  2  2  0  0  0  0
  1  3  1  0  0  0  0
  2  4  1  0  0  0  0
  3  5  2  0  0  0  0
  4  6  2  0  0  0  0
  5  6  1  0  0  0  0
  5 11  1  0  0  0  0
  6 14  1  0  0  0  0
  7 11  1  0  0  0  0
  7 14  1  0  0  0  0
  7 15  2  0  0  0  0
  8  9  1  0  0  0  0
  8 10  1  0  0  0  0
  9 12  1  0  0  0  0
 10 16  1  0  0  0  0
 11 13  1  0  0  0  0
 12 13  1  0  0  0  0
 12 16  1  0  0  0  0
  1 17  1  0  0  0  0
  2 18  1  0  0  0  0
  3 19  1  0  0  0  0
  4 20  1  0  0  0  0
  8 21  1  0  0  0  0
  8 22  1  0  0  0  0
  9 23  1  0  0  0  0
  9 24  1  0  0  0  0
 10 25  1  0  0  0  0
 10 26  1  0  0  0  0
 11 27  1  0  0  0  0
 12 28  1  0  0  0  0
 13 29  1  0  0  0  0
 13 30  1  0  0  0  0
 14 31  1  0  0  0  0
M  END
$$$$
