@<TRIPOS>MOLECULE
AVX62528_0
   26    28     0     0     0
SMALL
NO_CHARGES

@<TRIPOS>ATOM
      1 C1          0.3038   -9.3659   -2.8471 C.2       1 MOL         0.0000
      2 C2          0.3519   -2.0775    0.4422 C.ar      1 MOL         0.0000
      3 C3          0.0489   -1.0083   -0.4029 C.ar      1 MOL         0.0000
      4 C4         -0.3207   -8.1934   -2.3549 C.2       1 MOL         0.0000
      5 C5         -0.1402   -2.5032   -2.3253 C.ar      1 MOL         0.0000
      6 C6          1.3162   -8.9689   -3.6925 C.2       1 MOL         0.0000
      7 C7          0.1604   -3.5565   -1.4826 C.ar      1 MOL         0.0000
      8 C8          0.4008   -3.3366   -0.1231 C.ar      1 MOL         0.0000
      9 C9         -0.1948   -1.2188   -1.7733 C.ar      1 MOL         0.0000
     10 C10         0.3290   -7.1154   -2.9147 C.2       1 MOL         0.0000
     11 C11         0.3033   -4.9945   -1.6833 C.2       1 MOL         0.0000
     12 C12         0.6440   -5.6207   -0.3620 C.2       1 MOL         0.0000
     13 C13         0.1688   -5.6938   -2.8118 C.2       1 MOL         0.0000
     14 N1          1.3219   -7.5988   -3.7262 N.pl3     1 MOL         0.0000
     15 N2          0.6826   -4.5427    0.5281 N.am      1 MOL         0.0000
     16 O1          0.8373   -6.8024   -0.1432 O.2       1 MOL         0.0000
     17 Br1        -0.6014    0.2587   -2.8840 Br        1 MOL         0.0000
     18 H1          0.0451  -10.3888   -2.6116 H         1 MOL         0.0000
     19 H2          0.5402   -1.9167    1.4975 H         1 MOL         0.0000
     20 H3          0.0048   -0.0057    0.0168 H         1 MOL         0.0000
     21 H4         -1.1530   -8.1446   -1.6661 H         1 MOL         0.0000
     22 H5         -0.3271   -2.6707   -3.3812 H         1 MOL         0.0000
     23 H6          2.0310   -9.5369   -4.2707 H         1 MOL         0.0000
     24 H7         -0.0525   -5.1411   -3.7249 H         1 MOL         0.0000
     25 H8          1.9641   -7.0371   -4.2692 H         1 MOL         0.0000
     26 H9          0.8882   -4.6244    1.5168 H         1 MOL         0.0000
@<TRIPOS>BOND
     1    1    4 1
     2    1    6 2
     3    2    3 ar
     4    2    8 ar
     5    3    9 ar
     6    4   10 2
     7    5    7 ar
     8    5    9 ar
     9    6   14 1
    10    7    8 ar
    11    7   11 1
    12    8   15 1
    13    9   17 1
    14   10   13 1
    15   10   14 1
    16   11   12 1
    17   11   13 2
    18   12   15 am
    19   12   16 2
    20    1   18 1
    21    2   19 1
    22    3   20 1
    23    4   21 1
    24    5   22 1
    25    6   23 1
    26   13   24 1
    27   14   25 1
    28   15   26 1
