AVX62530_0
  -OEChem-04011315033D

 32 34  0     0  0  0  0  0  0999 V2000
    0.3519   -2.0775    0.4422 C   0  0  0  0  0  0  0  0  0  0  0  0
    0.0489   -1.0083   -0.4029 C   0  0  0  0  0  0  0  0  0  0  0  0
   -0.1402   -2.5032   -2.3253 C   0  0  0  0  0  0  0  0  0  0  0  0
    0.9181   -9.2778   -3.1311 C   0  0  0  0  0  0  0  0  0  0  0  0
    0.1604   -3.5565   -1.4826 C   0  0  0  0  0  0  0  0  0  0  0  0
    1.4029   -7.9467   -3.1448 C   0  0  0  0  0  0  0  0  0  0  0  0
    0.4008   -3.3366   -0.1231 C   0  0  0  0  0  0  0  0  0  0  0  0
   -0.1948   -1.2188   -1.7733 C   0  0  0  0  0  0  0  0  0  0  0  0
    0.3290   -7.1154   -2.9147 C   0  0  0  0  0  0  0  0  0  0  0  0
   -0.4374   -9.2194   -2.8931 C   0  0  0  0  0  0  0  0  0  0  0  0
    0.3033   -4.9945   -1.6833 C   0  0  0  0  0  0  0  0  0  0  0  0
    0.6440   -5.6207   -0.3620 C   0  0  0  0  0  0  0  0  0  0  0  0
    0.1688   -5.6938   -2.8118 C   0  0  0  0  0  0  0  0  0  0  0  0
    2.8048   -7.5378   -3.3661 C   0  0  0  0  0  0  0  0  0  0  0  0
   -1.4422  -10.2921   -2.7756 C   0  0  0  0  0  0  0  0  0  0  0  0
   -0.7845   -7.9000   -2.7635 N   0  0  0  0  0  0  0  0  0  0  0  0
    0.6826   -4.5427    0.5281 N   0  0  0  0  0  0  0  0  0  0  0  0
    0.8373   -6.8024   -0.1432 O   0  0  0  0  0  0  0  0  0  0  0  0
   -0.6014    0.2587   -2.8840 Br  0  0  0  0  0  0  0  0  0  0  0  0
    0.5402   -1.9167    1.4975 H   0  0  0  0  0  0  0  0  0  0  0  0
    0.0048   -0.0057    0.0168 H   0  0  0  0  0  0  0  0  0  0  0  0
   -0.3271   -2.6707   -3.3812 H   0  0  0  0  0  0  0  0  0  0  0  0
    1.4933  -10.1820   -3.2785 H   0  0  0  0  0  0  0  0  0  0  0  0
   -0.0525   -5.1411   -3.7249 H   0  0  0  0  0  0  0  0  0  0  0  0
    3.0058   -7.3748   -4.4372 H   0  0  0  0  0  0  0  0  0  0  0  0
    3.0520   -6.6049   -2.8321 H   0  0  0  0  0  0  0  0  0  0  0  0
    3.5184   -8.2963   -3.0020 H   0  0  0  0  0  0  0  0  0  0  0  0
   -1.5387  -10.6358   -1.7321 H   0  0  0  0  0  0  0  0  0  0  0  0
   -2.4410   -9.9644   -3.1128 H   0  0  0  0  0  0  0  0  0  0  0  0
   -1.1864  -11.1703   -3.3940 H   0  0  0  0  0  0  0  0  0  0  0  0
   -1.7210   -7.5629   -2.5838 H   0  0  0  0  0  0  0  0  0  0  0  0
    0.8882   -4.6244    1.5168 H   0  0  0  0  0  0  0  0  0  0  0  0
  1  2  1  0  0  0  0
  1  7  2  0  0  0  0
  2  8  2  0  0  0  0
  3  5  2  0  0  0  0
  3  8  1  0  0  0  0
  4  6  1  0  0  0  0
  4 10  2  0  0  0  0
  5  7  1  0  0  0  0
  5 11  1  0  0  0  0
  6  9  2  0  0  0  0
  6 14  1  0  0  0  0
  7 17  1  0  0  0  0
  8 19  1  0  0  0  0
  9 13  1  0  0  0  0
  9 16  1  0  0  0  0
 10 15  1  0  0  0  0
 10 16  1  0  0  0  0
 11 12  1  0  0  0  0
 11 13  2  0  0  0  0
 12 17  1  0  0  0  0
 12 18  2  0  0  0  0
  1 20  1  0  0  0  0
  2 21  1  0  0  0  0
  3 22  1  0  0  0  0
  4 23  1  0  0  0  0
 13 24  1  0  0  0  0
 14 25  1  0  0  0  0
 14 26  1  0  0  0  0
 14 27  1  0  0  0  0
 15 28  1  0  0  0  0
 15 29  1  0  0  0  0
 15 30  1  0  0  0  0
 16 31  1  0  0  0  0
 17 32  1  0  0  0  0
M  END
$$$$
