@<TRIPOS>MOLECULE
AVX62807_2
   66    70     0     0     0
SMALL
NO_CHARGES

@<TRIPOS>ATOM
      1 C1          3.4287   -5.9174    1.9859 C.ar      1 MOL         0.0000
      2 C2          6.6283    1.5971   -2.3102 C.ar      1 MOL         0.0000
      3 C3          3.0391   -4.7533    2.6482 C.ar      1 MOL         0.0000
      4 C4          4.3718   -5.8538    0.9601 C.ar      1 MOL         0.0000
      5 C5          5.8979    1.9388   -1.1721 C.ar      1 MOL         0.0000
      6 C6          6.6161    0.2831   -2.7783 C.ar      1 MOL         0.0000
      7 C7          3.5924   -3.5256    2.2847 C.ar      1 MOL         0.0000
      8 C8          4.9251   -4.6260    0.5965 C.ar      1 MOL         0.0000
      9 C9          5.1552    0.9666   -0.5020 C.ar      1 MOL         0.0000
     10 C10         5.8734   -0.6891   -2.1083 C.ar      1 MOL         0.0000
     11 C11        -1.9346    3.5866   -0.8385 C.ar      1 MOL         0.0000
     12 C12        -2.7883    4.2981   -1.6819 C.ar      1 MOL         0.0000
     13 C13        -0.5479    2.9957   -2.7289 C.ar      1 MOL         0.0000
     14 C14         4.5354   -3.4619    1.2588 C.ar      1 MOL         0.0000
     15 C15         5.1430   -0.3474   -0.9701 C.ar      1 MOL         0.0000
     16 C16        -0.8134    2.9408   -1.3604 C.ar      1 MOL         0.0000
     17 C17        -2.5164    4.3646   -3.0487 C.ar      1 MOL         0.0000
     18 C18        -1.4086    3.6955   -3.5751 C.ar      1 MOL         0.0000
     19 C19         0.6352    2.3028   -3.2789 C.2       1 MOL         0.0000
     20 C20         1.9568   -0.6934   -0.3821 C.2       1 MOL         0.0000
     21 C21        -1.2774   -1.2119    0.1442 C.3       1 MOL         0.0000
     22 C22        -0.0574   -1.1371    1.0455 C.3       1 MOL         0.0000
     23 C23        -1.4814    0.2286   -0.2680 C.3       1 MOL         0.0000
     24 C24        -2.8292    5.3813   -5.1114 C.3       1 MOL         0.0000
     25 C25        -2.2122    4.1314   -5.7081 C.3       1 MOL         0.0000
     26 C26         0.8428   -0.0843    0.4049 C.3       1 MOL         0.0000
     27 C27         5.1353   -2.1316    0.8641 C.3       1 MOL         0.0000
     28 C28         0.0882    2.1910   -0.4245 C.3       1 MOL         0.0000
     29 C29         4.3346   -1.4068   -0.2407 C.3       1 MOL         0.0000
     30 N1          3.1334   -0.8386    0.3279 N.am      1 MOL         0.0000
     31 N2         -0.0716    0.7072   -0.5201 N.4       1 MOL         0.0000
     32 O1          1.7457    2.9461   -3.3505 O.co2     1 MOL         0.0000
     33 O2          0.5088    1.0834   -3.6649 O.co2     1 MOL         0.0000
     34 O3          1.7676   -1.0122   -1.5501 O.2       1 MOL         0.0000
     35 O4         -3.3798    5.0951   -3.8227 O.3       1 MOL         0.0000
     36 O5         -1.1069    3.6958   -4.9119 O.3       1 MOL         0.0000
     37 H1          2.9988   -6.8735    2.2700 H         1 MOL         0.0000
     38 H2          7.2054    2.3545   -2.8325 H         1 MOL         0.0000
     39 H3          2.3056   -4.8028    3.4477 H         1 MOL         0.0000
     40 H4          4.6762   -6.7600    0.4450 H         1 MOL         0.0000
     41 H5          5.9064    2.9620   -0.8080 H         1 MOL         0.0000
     42 H6          7.1838    0.0170   -3.6650 H         1 MOL         0.0000
     43 H7          3.2826   -2.6237    2.8061 H         1 MOL         0.0000
     44 H8          5.6591   -4.5861   -0.2040 H         1 MOL         0.0000
     45 H9          4.5893    1.2419    0.3840 H         1 MOL         0.0000
     46 H10         5.8699   -1.7103   -2.4802 H         1 MOL         0.0000
     47 H11        -2.1499    3.5454    0.2262 H         1 MOL         0.0000
     48 H12        -3.6546    4.8053   -1.2658 H         1 MOL         0.0000
     49 H13        -1.0663   -1.8359   -0.7323 H         1 MOL         0.0000
     50 H14        -2.1503   -1.6259    0.6567 H         1 MOL         0.0000
     51 H15        -0.3607   -0.7996    2.0444 H         1 MOL         0.0000
     52 H16         0.4239   -2.1138    1.1586 H         1 MOL         0.0000
     53 H17        -2.0607    0.3483   -1.1873 H         1 MOL         0.0000
     54 H18        -1.9056    0.8294    0.5438 H         1 MOL         0.0000
     55 H19        -2.0912    6.1862   -5.0064 H         1 MOL         0.0000
     56 H20        -3.6426    5.7439   -5.7475 H         1 MOL         0.0000
     57 H21        -2.9403    3.3134   -5.7732 H         1 MOL         0.0000
     58 H22        -1.8369    4.3361   -6.7156 H         1 MOL         0.0000
     59 H23         1.2614    0.5943    1.1557 H         1 MOL         0.0000
     60 H24         6.1612   -2.3199    0.5178 H         1 MOL         0.0000
     61 H25         5.2412   -1.4966    1.7536 H         1 MOL         0.0000
     62 H26         1.1418    2.4078   -0.6310 H         1 MOL         0.0000
     63 H27        -0.1102    2.4622    0.6180 H         1 MOL         0.0000
     64 H28         4.0024   -2.1527   -0.9742 H         1 MOL         0.0000
     65 H29         3.1551   -0.5313    1.2956 H         1 MOL         0.0000
     66 H30         0.1559    0.4433   -1.4890 H         1 MOL         0.0000
@<TRIPOS>BOND
     1    1    3 ar
     2    1    4 ar
     3    2    5 ar
     4    2    6 ar
     5    3    7 ar
     6    4    8 ar
     7    5    9 ar
     8    6   10 ar
     9    7   14 ar
    10    8   14 ar
    11    9   15 ar
    12   10   15 ar
    13   11   12 ar
    14   11   16 ar
    15   12   17 ar
    16   13   16 ar
    17   13   18 ar
    18   13   19 1
    19   14   27 1
    20   15   29 1
    21   16   28 1
    22   17   18 ar
    23   17   35 1
    24   18   36 1
    25   19   32 1
    26   19   33 2
    27   20   26 1
    28   20   30 am
    29   20   34 2
    30   21   22 1
    31   21   23 1
    32   22   26 1
    33   23   31 1
    34   24   25 1
    35   24   35 1
    36   25   36 1
    37   26   31 1
    38   27   29 1
    39   28   31 1
    40   29   30 1
    41    1   37 1
    42    2   38 1
    43    3   39 1
    44    4   40 1
    45    5   41 1
    46    6   42 1
    47    7   43 1
    48    8   44 1
    49    9   45 1
    50   10   46 1
    51   11   47 1
    52   12   48 1
    53   21   49 1
    54   21   50 1
    55   22   51 1
    56   22   52 1
    57   23   53 1
    58   23   54 1
    59   24   55 1
    60   24   56 1
    61   25   57 1
    62   25   58 1
    63   26   59 1
    64   27   60 1
    65   27   61 1
    66   28   62 1
    67   28   63 1
    68   29   64 1
    69   30   65 1
    70   31   66 1
