@<TRIPOS>MOLECULE
AVX62526_0
   29    31     0     0     0
SMALL
NO_CHARGES

@<TRIPOS>ATOM
      1 C1          0.3043   -9.3656   -2.8481 C.2       1 MOL         0.0000
      2 C2          0.3519   -2.0775    0.4422 C.ar      1 MOL         0.0000
      3 C3          0.0489   -1.0083   -0.4029 C.ar      1 MOL         0.0000
      4 C4         -0.3205   -8.1931   -2.3563 C.2       1 MOL         0.0000
      5 C5         -0.1402   -2.5032   -2.3253 C.ar      1 MOL         0.0000
      6 C6          1.3177   -8.9686   -3.6923 C.2       1 MOL         0.0000
      7 C7          0.1604   -3.5565   -1.4826 C.ar      1 MOL         0.0000
      8 C8          0.4008   -3.3366   -0.1231 C.ar      1 MOL         0.0000
      9 C9         -0.1948   -1.2188   -1.7733 C.ar      1 MOL         0.0000
     10 C10         0.3300   -7.1151   -2.9152 C.2       1 MOL         0.0000
     11 C11         0.3033   -4.9945   -1.6833 C.2       1 MOL         0.0000
     12 C12         0.6440   -5.6207   -0.3620 C.2       1 MOL         0.0000
     13 C13         0.1699   -5.6935   -2.8121 C.2       1 MOL         0.0000
     14 N1          1.3237   -7.5985   -3.7257 N.pl3     1 MOL         0.0000
     15 N2          0.6826   -4.5427    0.5281 N.am      1 MOL         0.0000
     16 N3         -0.5059   -0.0897   -2.6228 N.4       1 MOL         0.0000
     17 O1          0.8377   -6.8023   -0.1432 O.2       1 MOL         0.0000
     18 H1          0.0451  -10.3885   -2.6131 H         1 MOL         0.0000
     19 H2          0.5388   -1.9168    1.4978 H         1 MOL         0.0000
     20 H3          0.0023   -0.0032    0.0103 H         1 MOL         0.0000
     21 H4         -1.1536   -8.1444   -1.6684 H         1 MOL         0.0000
     22 H5         -0.3277   -2.6645   -3.3820 H         1 MOL         0.0000
     23 H6          2.0330   -9.5366   -4.2699 H         1 MOL         0.0000
     24 H7         -0.0503   -5.1406   -3.7253 H         1 MOL         0.0000
     25 H8          1.9665   -7.0368   -4.2679 H         1 MOL         0.0000
     26 H9          0.8866   -4.6097    1.5183 H         1 MOL         0.0000
     27 H10        -0.6599   -0.4074   -3.5891 H         1 MOL         0.0000
     28 H11        -1.3543    0.3959   -2.3017 H         1 MOL         0.0000
     29 H12         0.2715    0.5843   -2.6177 H         1 MOL         0.0000
@<TRIPOS>BOND
     1    1    4 1
     2    1    6 2
     3    2    3 ar
     4    2    8 ar
     5    3    9 ar
     6    4   10 2
     7    5    7 ar
     8    5    9 ar
     9    6   14 1
    10    7    8 ar
    11    7   11 1
    12    8   15 1
    13    9   16 1
    14   10   13 1
    15   10   14 1
    16   11   12 1
    17   11   13 2
    18   12   15 am
    19   12   17 2
    20    1   18 1
    21    2   19 1
    22    3   20 1
    23    4   21 1
    24    5   22 1
    25    6   23 1
    26   13   24 1
    27   14   25 1
    28   15   26 1
    29   16   27 1
    30   16   28 1
    31   16   29 1
