AVX62807_1
  -OEChem-04011315033D

 66 70  0     1  0  0  0  0  0999 V2000
    2.3232    6.2934   -0.8280 C   0  0  0  0  0  0  0  0  0  0  0  0
    6.7545   -1.7510   -1.7133 C   0  0  0  0  0  0  0  0  0  0  0  0
    3.2352    5.9222   -1.8159 C   0  0  0  0  0  0  0  0  0  0  0  0
    2.1731    5.5064    0.3139 C   0  0  0  0  0  0  0  0  0  0  0  0
    6.4858   -0.8080   -2.7053 C   0  0  0  0  0  0  0  0  0  0  0  0
    6.1288   -1.6534   -0.4705 C   0  0  0  0  0  0  0  0  0  0  0  0
    3.9971    4.7640   -1.6620 C   0  0  0  0  0  0  0  0  0  0  0  0
    2.9350    4.3482    0.4677 C   0  0  0  0  0  0  0  0  0  0  0  0
    5.5915    0.2327   -2.4545 C   0  0  0  0  0  0  0  0  0  0  0  0
    5.2345   -0.6128   -0.2196 C   0  0  0  0  0  0  0  0  0  0  0  0
   -2.6713    2.7618    1.0572 C   0  0  0  0  0  0  0  0  0  0  0  0
   -3.9515    3.3158    1.0333 C   0  0  0  0  0  0  0  0  0  0  0  0
   -2.4291    3.2017   -1.3080 C   0  0  0  0  0  0  0  0  0  0  0  0
    3.8470    3.9770   -0.5202 C   0  0  0  0  0  0  0  0  0  0  0  0
    4.9658    0.3303   -1.2116 C   0  0  0  0  0  0  0  0  0  0  0  0
   -1.9093    2.7096   -0.1105 C   0  0  0  0  0  0  0  0  0  0  0  0
   -4.4670    3.8202   -0.1610 C   0  0  0  0  0  0  0  0  0  0  0  0
   -3.7146    3.7434   -1.3356 C   0  0  0  0  0  0  0  0  0  0  0  0
   -1.6227    3.1362   -2.5440 C   0  0  0  0  0  0  0  0  0  0  0  0
    1.7867    0.3958   -0.5139 C   0  0  0  0  0  0  0  0  0  0  0  0
   -0.6192   -1.5440   -0.5163 C   0  0  0  0  0  0  0  0  0  0  0  0
    0.4695   -1.4465    0.5406 C   0  0  0  0  0  0  0  0  0  0  0  0
   -1.3942   -0.2380   -0.4317 C   0  0  0  0  0  0  0  0  0  0  0  0
   -6.0029    5.1508   -1.2820 C   0  0  0  0  0  0  0  0  0  0  0  0
   -5.5933    4.3959   -2.5316 C   0  0  0  0  0  0  0  0  0  0  0  0
    0.8227    0.0302    0.5692 C   0  0  2  0  0  0  0  0  0  0  0  0
    4.6723    2.7215   -0.3529 C   0  0  0  0  0  0  0  0  0  0  0  0
   -0.5335    2.1145   -0.0482 C   0  0  0  0  0  0  0  0  0  0  0  0
    3.9919    1.4636   -0.9377 C   0  0  2  0  0  0  0  0  0  0  0  0
    2.9295    1.0267   -0.0605 N   0  0  0  0  0  0  0  0  0  0  0  0
   -0.5319    0.6881    0.4003 N   0  3  1  0  0  0  0  0  0  0  0  0
   -0.8535    4.1257   -2.8288 O   0  5  0  0  0  0  0  0  0  0  0  0
   -1.7215    2.0923   -3.2874 O   0  0  0  0  0  0  0  0  0  0  0  0
    1.5179    0.1256   -1.6785 O   0  0  0  0  0  0  0  0  0  0  0  0
   -5.7216    4.3701   -0.1170 O   0  0  0  0  0  0  0  0  0  0  0  0
   -4.1780    4.1911   -2.5452 O   0  0  0  0  0  0  0  0  0  0  0  0
    1.7310    7.1960   -0.9473 H   0  0  0  0  0  0  0  0  0  0  0  0
    7.4498   -2.5620   -1.9093 H   0  0  0  0  0  0  0  0  0  0  0  0
    3.3530    6.5355   -2.7045 H   0  0  0  0  0  0  0  0  0  0  0  0
    1.4639    5.7957    1.0837 H   0  0  0  0  0  0  0  0  0  0  0  0
    6.9721   -0.8844   -3.6735 H   0  0  0  0  0  0  0  0  0  0  0  0
    6.3369   -2.3881    0.3017 H   0  0  0  0  0  0  0  0  0  0  0  0
    4.7052    4.4825   -2.4370 H   0  0  0  0  0  0  0  0  0  0  0  0
    2.8112    3.7411    1.3606 H   0  0  0  0  0  0  0  0  0  0  0  0
    5.3884    0.9630   -3.2333 H   0  0  0  0  0  0  0  0  0  0  0  0
    4.7517   -0.5447    0.7517 H   0  0  0  0  0  0  0  0  0  0  0  0
   -2.2743    2.3771    1.9931 H   0  0  0  0  0  0  0  0  0  0  0  0
   -4.5347    3.3602    1.9490 H   0  0  0  0  0  0  0  0  0  0  0  0
   -0.1735   -1.6459   -1.5129 H   0  0  0  0  0  0  0  0  0  0  0  0
   -1.2652   -2.4140   -0.3629 H   0  0  0  0  0  0  0  0  0  0  0  0
    0.0687   -1.7554    1.5138 H   0  0  0  0  0  0  0  0  0  0  0  0
    1.3217   -2.0917    0.3048 H   0  0  0  0  0  0  0  0  0  0  0  0
   -1.5531    0.2070   -1.4190 H   0  0  0  0  0  0  0  0  0  0  0  0
   -2.3477   -0.3462    0.0938 H   0  0  0  0  0  0  0  0  0  0  0  0
   -5.4758    6.1092   -1.1975 H   0  0  0  0  0  0  0  0  0  0  0  0
   -7.0785    5.3522   -1.2956 H   0  0  0  0  0  0  0  0  0  0  0  0
   -6.0887    3.4190   -2.5934 H   0  0  0  0  0  0  0  0  0  0  0  0
   -5.8557    4.9696   -3.4259 H   0  0  0  0  0  0  0  0  0  0  0  0
    1.2294    0.3476    1.5345 H   0  0  0  0  0  0  0  0  0  0  0  0
    4.8506    2.5824    0.7226 H   0  0  0  0  0  0  0  0  0  0  0  0
    5.6662    2.8721   -0.7947 H   0  0  0  0  0  0  0  0  0  0  0  0
   -0.0480    2.1360   -1.0298 H   0  0  0  0  0  0  0  0  0  0  0  0
    0.1043    2.6650    0.6516 H   0  0  0  0  0  0  0  0  0  0  0  0
    3.5099    1.7403   -1.8841 H   0  0  0  0  0  0  0  0  0  0  0  0
    3.0276    1.1912    0.9368 H   0  0  0  0  0  0  0  0  0  0  0  0
   -0.9512    0.6913    1.3407 H   0  0  0  0  0  0  0  0  0  0  0  0
  1  3  2  0  0  0  0
  1  4  1  0  0  0  0
  2  5  2  0  0  0  0
  2  6  1  0  0  0  0
  3  7  1  0  0  0  0
  4  8  2  0  0  0  0
  5  9  1  0  0  0  0
  6 10  2  0  0  0  0
  7 14  2  0  0  0  0
  8 14  1  0  0  0  0
  9 15  2  0  0  0  0
 10 15  1  0  0  0  0
 11 12  1  0  0  0  0
 11 16  2  0  0  0  0
 12 17  2  0  0  0  0
 13 16  1  0  0  0  0
 13 18  2  0  0  0  0
 13 19  1  0  0  0  0
 14 27  1  0  0  0  0
 15 29  1  0  0  0  0
 16 28  1  0  0  0  0
 17 18  1  0  0  0  0
 17 35  1  0  0  0  0
 18 36  1  0  0  0  0
 19 32  1  0  0  0  0
 19 33  2  0  0  0  0
 20 26  1  0  0  0  0
 20 30  1  0  0  0  0
 20 34  2  0  0  0  0
 21 22  1  0  0  0  0
 21 23  1  0  0  0  0
 22 26  1  0  0  0  0
 23 31  1  0  0  0  0
 24 25  1  0  0  0  0
 24 35  1  0  0  0  0
 25 36  1  0  0  0  0
 26 31  1  0  0  0  0
 27 29  1  0  0  0  0
 28 31  1  0  0  0  0
 29 30  1  0  0  0  0
  1 37  1  0  0  0  0
  2 38  1  0  0  0  0
  3 39  1  0  0  0  0
  4 40  1  0  0  0  0
  5 41  1  0  0  0  0
  6 42  1  0  0  0  0
  7 43  1  0  0  0  0
  8 44  1  0  0  0  0
  9 45  1  0  0  0  0
 10 46  1  0  0  0  0
 11 47  1  0  0  0  0
 12 48  1  0  0  0  0
 21 49  1  0  0  0  0
 21 50  1  0  0  0  0
 22 51  1  0  0  0  0
 22 52  1  0  0  0  0
 23 53  1  0  0  0  0
 23 54  1  0  0  0  0
 24 55  1  0  0  0  0
 24 56  1  0  0  0  0
 25 57  1  0  0  0  0
 25 58  1  0  0  0  0
 26 59  1  0  0  0  0
 27 60  1  0  0  0  0
 27 61  1  0  0  0  0
 28 62  1  0  0  0  0
 28 63  1  0  0  0  0
 29 64  1  0  0  0  0
 30 65  1  0  0  0  0
 31 66  1  0  0  0  0
M  CHG  2  31   1  32  -1
M  END
$$$$
