@<TRIPOS>MOLECULE
AVX62808_0
   63    67     0     0     0
SMALL
NO_CHARGES

@<TRIPOS>ATOM
      1 C1          4.2446   -5.6983    0.0683 C.ar      1 MOL         0.0000
      2 C2          7.8395    0.3760    1.5092 C.ar      1 MOL         0.0000
      3 C3          4.9234   -5.0894   -0.9871 C.ar      1 MOL         0.0000
      4 C4          3.5948   -4.9163    1.0233 C.ar      1 MOL         0.0000
      5 C5          7.2678    0.9374    0.3675 C.ar      1 MOL         0.0000
      6 C6          7.2754   -0.7632    2.0835 C.ar      1 MOL         0.0000
      7 C7          4.9527   -3.6985   -1.0875 C.ar      1 MOL         0.0000
      8 C8          3.6241   -3.5254    0.9229 C.ar      1 MOL         0.0000
      9 C9          6.1319    0.3598   -0.1999 C.ar      1 MOL         0.0000
     10 C10         6.1396   -1.3408    1.5162 C.ar      1 MOL         0.0000
     11 C11         2.0049    2.3770   -2.0064 C.ar      1 MOL         0.0000
     12 C12         3.2925    2.8009   -2.3366 C.ar      1 MOL         0.0000
     13 C13         2.2425    3.3474    0.1954 C.ar      1 MOL         0.0000
     14 C14         4.3030   -2.9164   -0.1325 C.ar      1 MOL         0.0000
     15 C15         5.5678   -0.7793    0.3745 C.ar      1 MOL         0.0000
     16 C16         1.4789    2.6543   -0.7443 C.ar      1 MOL         0.0000
     17 C17         4.0519    3.5055   -1.4022 C.ar      1 MOL         0.0000
     18 C18         3.5352    3.7597   -0.1292 C.ar      1 MOL         0.0000
     19 C19         1.6853    3.6310    1.5338 C.2       1 MOL         0.0000
     20 C20         1.9568   -0.6934   -0.3821 C.2       1 MOL         0.0000
     21 C21        -1.2774   -1.2119    0.1442 C.3       1 MOL         0.0000
     22 C22        -0.0574   -1.1371    1.0455 C.3       1 MOL         0.0000
     23 C23        -1.4814    0.2286   -0.2680 C.3       1 MOL         0.0000
     24 C24         5.8393    4.9012   -0.9090 C.3       1 MOL         0.0000
     25 C25         5.6388    4.4814    0.5341 C.3       1 MOL         0.0000
     26 C26         0.8428   -0.0843    0.4049 C.3       1 MOL         0.0000
     27 C27         0.0882    2.1910   -0.4245 C.3       1 MOL         0.0000
     28 C28         4.3346   -1.4068   -0.2407 C.3       1 MOL         0.0000
     29 N1          3.1334   -0.8386    0.3279 N.am      1 MOL         0.0000
     30 N2         -0.0716    0.7072   -0.5201 N.4       1 MOL         0.0000
     31 O1          1.0359    4.7262    1.7094 O.co2     1 MOL         0.0000
     32 O2          1.8714    2.7719    2.4715 O.co2     1 MOL         0.0000
     33 O3          1.7676   -1.0122   -1.5501 O.2       1 MOL         0.0000
     34 O4          5.3011    3.9129   -1.7918 O.3       1 MOL         0.0000
     35 O5          4.2436    4.4175    0.8422 O.3       1 MOL         0.0000
     36 H1          4.2208   -6.7814    0.1456 H         1 MOL         0.0000
     37 H2          8.7247    0.8251    1.9500 H         1 MOL         0.0000
     38 H3          5.4285   -5.6982   -1.7314 H         1 MOL         0.0000
     39 H4          3.0653   -5.3901    1.8446 H         1 MOL         0.0000
     40 H5          7.7075    1.8238   -0.0805 H         1 MOL         0.0000
     41 H6          7.7209   -1.2012    2.9718 H         1 MOL         0.0000
     42 H7          5.4843   -3.2327   -1.9132 H         1 MOL         0.0000
     43 H8          3.1152   -2.9241    1.6717 H         1 MOL         0.0000
     44 H9          5.6931    0.8042   -1.0894 H         1 MOL         0.0000
     45 H10         5.7069   -2.2282    1.9706 H         1 MOL         0.0000
     46 H11         1.4172    1.8345   -2.7425 H         1 MOL         0.0000
     47 H12         3.6912    2.5881   -3.3247 H         1 MOL         0.0000
     48 H13        -1.0663   -1.8359   -0.7323 H         1 MOL         0.0000
     49 H14        -2.1503   -1.6259    0.6567 H         1 MOL         0.0000
     50 H15        -0.3607   -0.7996    2.0444 H         1 MOL         0.0000
     51 H16         0.4239   -2.1138    1.1586 H         1 MOL         0.0000
     52 H17        -2.0607    0.3483   -1.1873 H         1 MOL         0.0000
     53 H18        -1.9056    0.8294    0.5438 H         1 MOL         0.0000
     54 H19         5.3551    5.8623   -1.1217 H         1 MOL         0.0000
     55 H20         6.9065    4.9995   -1.1309 H         1 MOL         0.0000
     56 H21         6.0867    3.5003    0.7350 H         1 MOL         0.0000
     57 H22         6.0961    5.2109    1.2097 H         1 MOL         0.0000
     58 H23         1.2614    0.5943    1.1557 H         1 MOL         0.0000
     59 H24        -0.1987    2.4732    0.5942 H         1 MOL         0.0000
     60 H25        -0.6430    2.6310   -1.1112 H         1 MOL         0.0000
     61 H26         4.2987   -1.1203   -1.2999 H         1 MOL         0.0000
     62 H27         3.1551   -0.5313    1.2956 H         1 MOL         0.0000
     63 H28         0.1559    0.4433   -1.4890 H         1 MOL         0.0000
@<TRIPOS>BOND
     1    1    3 ar
     2    1    4 ar
     3    2    5 ar
     4    2    6 ar
     5    3    7 ar
     6    4    8 ar
     7    5    9 ar
     8    6   10 ar
     9    7   14 ar
    10    8   14 ar
    11    9   15 ar
    12   10   15 ar
    13   11   12 ar
    14   11   16 ar
    15   12   17 ar
    16   13   16 ar
    17   13   18 ar
    18   13   19 1
    19   14   28 1
    20   15   28 1
    21   16   27 1
    22   17   18 ar
    23   17   34 1
    24   18   35 1
    25   19   31 1
    26   19   32 2
    27   20   26 1
    28   20   29 am
    29   20   33 2
    30   21   22 1
    31   21   23 1
    32   22   26 1
    33   23   30 1
    34   24   25 1
    35   24   34 1
    36   25   35 1
    37   26   30 1
    38   27   30 1
    39   28   29 1
    40    1   36 1
    41    2   37 1
    42    3   38 1
    43    4   39 1
    44    5   40 1
    45    6   41 1
    46    7   42 1
    47    8   43 1
    48    9   44 1
    49   10   45 1
    50   11   46 1
    51   12   47 1
    52   21   48 1
    53   21   49 1
    54   22   50 1
    55   22   51 1
    56   23   52 1
    57   23   53 1
    58   24   54 1
    59   24   55 1
    60   25   56 1
    61   25   57 1
    62   26   58 1
    63   27   59 1
    64   27   60 1
    65   28   61 1
    66   29   62 1
    67   30   63 1
