@<TRIPOS>MOLECULE
AVX62527_0
   35    37     0     0     0
SMALL
NO_CHARGES

@<TRIPOS>ATOM
      1 C1          0.3042   -9.3660   -2.8466 C.2       1 MOL         0.0000
      2 C2          0.3519   -2.0775    0.4422 C.ar      1 MOL         0.0000
      3 C3          0.0489   -1.0083   -0.4029 C.ar      1 MOL         0.0000
      4 C4         -0.3204   -8.1934   -2.3549 C.2       1 MOL         0.0000
      5 C5         -0.1402   -2.5032   -2.3253 C.ar      1 MOL         0.0000
      6 C6          1.3170   -8.9691   -3.6916 C.2       1 MOL         0.0000
      7 C7          0.1604   -3.5565   -1.4826 C.ar      1 MOL         0.0000
      8 C8          0.4008   -3.3366   -0.1231 C.ar      1 MOL         0.0000
      9 C9         -0.1948   -1.2188   -1.7733 C.ar      1 MOL         0.0000
     10 C10         0.3295   -7.1156   -2.9145 C.2       1 MOL         0.0000
     11 C11         0.3033   -4.9945   -1.6833 C.2       1 MOL         0.0000
     12 C12         0.6440   -5.6207   -0.3620 C.2       1 MOL         0.0000
     13 C13         0.1693   -5.6939   -2.8118 C.2       1 MOL         0.0000
     14 C14        -0.7652   -0.1269   -3.9696 C.2       1 MOL         0.0000
     15 C15        -1.9772    1.2710   -5.6744 C.2       1 MOL         0.0000
     16 C16        -1.0404    1.2790   -4.4716 C.3       1 MOL         0.0000
     17 N1          1.3229   -7.5990   -3.7254 N.pl3     1 MOL         0.0000
     18 N2          0.6826   -4.5427    0.5281 N.am      1 MOL         0.0000
     19 N3         -0.4932   -0.1285   -2.5927 N.am      1 MOL         0.0000
     20 O1         -3.1198    0.7770   -5.4600 O.co2     1 MOL         0.0000
     21 O2          0.8373   -6.8023   -0.1432 O.2       1 MOL         0.0000
     22 O3         -0.7898   -1.1009   -4.7147 O.2       1 MOL         0.0000
     23 O4         -1.4947    1.7655   -6.7318 O.co2     1 MOL         0.0000
     24 H1          0.0454  -10.3889   -2.6111 H         1 MOL         0.0000
     25 H2          0.5404   -1.9165    1.4974 H         1 MOL         0.0000
     26 H3          0.0036   -0.0033    0.0115 H         1 MOL         0.0000
     27 H4         -1.1531   -8.1446   -1.6665 H         1 MOL         0.0000
     28 H5         -0.3282   -2.6661   -3.3815 H         1 MOL         0.0000
     29 H6          2.0321   -9.5372   -4.2694 H         1 MOL         0.0000
     30 H7         -0.0515   -5.1413   -3.7251 H         1 MOL         0.0000
     31 H8         -1.4862    1.8668   -3.6605 H         1 MOL         0.0000
     32 H9         -0.0903    1.7521   -4.7468 H         1 MOL         0.0000
     33 H10         1.9653   -7.0374   -4.2682 H         1 MOL         0.0000
     34 H11         0.8882   -4.6244    1.5169 H         1 MOL         0.0000
     35 H12        -0.5182    0.7897   -2.1353 H         1 MOL         0.0000
@<TRIPOS>BOND
     1    1    4 1
     2    1    6 2
     3    2    3 ar
     4    2    8 ar
     5    3    9 ar
     6    4   10 2
     7    5    7 ar
     8    5    9 ar
     9    6   17 1
    10    7    8 ar
    11    7   11 1
    12    8   18 1
    13    9   19 1
    14   10   13 1
    15   10   17 1
    16   11   12 1
    17   11   13 2
    18   12   18 am
    19   12   21 2
    20   14   16 1
    21   14   19 am
    22   14   22 2
    23   15   16 1
    24   15   20 1
    25   15   23 2
    26    1   24 1
    27    2   25 1
    28    3   26 1
    29    4   27 1
    30    5   28 1
    31    6   29 1
    32   13   30 1
    33   16   31 1
    34   16   32 1
    35   17   33 1
    36   18   34 1
    37   19   35 1
