@<TRIPOS>MOLECULE
AVX62524_0
   32    34     0     0     0
SMALL
NO_CHARGES

@<TRIPOS>ATOM
      1 C1         -0.1948   -1.2188   -1.7733 C.ar      1 MOL         0.0000
      2 C2          0.0489   -1.0083   -0.4029 C.ar      1 MOL         0.0000
      3 C3         -0.1402   -2.5032   -2.3253 C.ar      1 MOL         0.0000
      4 C4          0.3519   -2.0775    0.4422 C.ar      1 MOL         0.0000
      5 C5          0.9180   -9.2778   -3.1311 C.2       1 MOL         0.0000
      6 C6          0.1604   -3.5565   -1.4826 C.ar      1 MOL         0.0000
      7 C7          1.4028   -7.9467   -3.1449 C.2       1 MOL         0.0000
      8 C8          0.4008   -3.3366   -0.1231 C.ar      1 MOL         0.0000
      9 C9          0.3289   -7.1155   -2.9147 C.2       1 MOL         0.0000
     10 C10        -0.4375   -9.2195   -2.8930 C.2       1 MOL         0.0000
     11 C11         0.3033   -4.9945   -1.6833 C.2       1 MOL         0.0000
     12 C12         0.6440   -5.6207   -0.3620 C.2       1 MOL         0.0000
     13 C13         0.1687   -5.6938   -2.8117 C.2       1 MOL         0.0000
     14 C14         2.8047   -7.5378   -3.3663 C.3       1 MOL         0.0000
     15 C15        -1.4422  -10.2922   -2.7755 C.3       1 MOL         0.0000
     16 N1         -0.7845   -7.9001   -2.7633 N.pl3     1 MOL         0.0000
     17 N2          0.6826   -4.5427    0.5281 N.am      1 MOL         0.0000
     18 O1          0.8372   -6.8024   -0.1432 O.2       1 MOL         0.0000
     19 H1         -0.4282   -0.3694   -2.4102 H         1 MOL         0.0000
     20 H2          0.0012    0.0003   -0.0007 H         1 MOL         0.0000
     21 H3         -0.3291   -2.6545   -3.3823 H         1 MOL         0.0000
     22 H4          0.5403   -1.9161    1.4974 H         1 MOL         0.0000
     23 H5          1.4932  -10.1820   -3.2786 H         1 MOL         0.0000
     24 H6         -0.0527   -5.1412   -3.7249 H         1 MOL         0.0000
     25 H7          3.0056   -7.3747   -4.4375 H         1 MOL         0.0000
     26 H8          3.0519   -6.6049   -2.8323 H         1 MOL         0.0000
     27 H9          3.5183   -8.2963   -3.0023 H         1 MOL         0.0000
     28 H10        -1.5386  -10.6358   -1.7319 H         1 MOL         0.0000
     29 H11        -2.4411   -9.9645   -3.1126 H         1 MOL         0.0000
     30 H12        -1.1865  -11.1704   -3.3939 H         1 MOL         0.0000
     31 H13        -1.7211   -7.5629   -2.5836 H         1 MOL         0.0000
     32 H14         0.8882   -4.6244    1.5170 H         1 MOL         0.0000
@<TRIPOS>BOND
     1    1    2 ar
     2    1    3 ar
     3    2    4 ar
     4    3    6 ar
     5    4    8 ar
     6    5    7 1
     7    5   10 2
     8    6    8 ar
     9    6   11 1
    10    7    9 2
    11    7   14 1
    12    8   17 1
    13    9   13 1
    14    9   16 1
    15   10   15 1
    16   10   16 1
    17   11   12 1
    18   11   13 2
    19   12   17 am
    20   12   18 2
    21    1   19 1
    22    2   20 1
    23    3   21 1
    24    4   22 1
    25    5   23 1
    26   13   24 1
    27   14   25 1
    28   14   26 1
    29   14   27 1
    30   15   28 1
    31   15   29 1
    32   15   30 1
    33   16   31 1
    34   17   32 1
