@<TRIPOS>MOLECULE
AVX62807_3
   66    70     0     0     0
SMALL
NO_CHARGES

@<TRIPOS>ATOM
      1 C1          6.8222   -2.6344    0.2112 C.ar      1 MOL         0.0000
      2 C2          3.1584    5.3782   -2.5340 C.ar      1 MOL         0.0000
      3 C3          5.9955   -2.0940    1.1961 C.ar      1 MOL         0.0000
      4 C4          7.1690   -1.8716   -0.9040 C.ar      1 MOL         0.0000
      5 C5          2.7410    5.0476   -1.2448 C.ar      1 MOL         0.0000
      6 C6          3.8453    4.4415   -3.3064 C.ar      1 MOL         0.0000
      7 C7          5.5155   -0.7908    1.0659 C.ar      1 MOL         0.0000
      8 C8          6.6891   -0.5684   -1.0342 C.ar      1 MOL         0.0000
      9 C9          3.0107    3.7804   -0.7278 C.ar      1 MOL         0.0000
     10 C10         4.1150    3.1744   -2.7894 C.ar      1 MOL         0.0000
     11 C11        -2.6713    2.7618    1.0572 C.ar      1 MOL         0.0000
     12 C12        -3.9515    3.3158    1.0333 C.ar      1 MOL         0.0000
     13 C13        -2.4291    3.2017   -1.3080 C.ar      1 MOL         0.0000
     14 C14         5.8623   -0.0280   -0.0493 C.ar      1 MOL         0.0000
     15 C15         3.6976    2.8438   -1.5002 C.ar      1 MOL         0.0000
     16 C16        -1.9093    2.7096   -0.1105 C.ar      1 MOL         0.0000
     17 C17        -4.4670    3.8202   -0.1610 C.ar      1 MOL         0.0000
     18 C18        -3.7146    3.7434   -1.3356 C.ar      1 MOL         0.0000
     19 C19        -1.6227    3.1362   -2.5440 C.2       1 MOL         0.0000
     20 C20         1.7867    0.3958   -0.5139 C.2       1 MOL         0.0000
     21 C21        -0.6192   -1.5440   -0.5163 C.3       1 MOL         0.0000
     22 C22         0.4695   -1.4465    0.5406 C.3       1 MOL         0.0000
     23 C23        -1.3942   -0.2380   -0.4317 C.3       1 MOL         0.0000
     24 C24        -6.0029    5.1508   -1.2820 C.3       1 MOL         0.0000
     25 C25        -5.5933    4.3959   -2.5316 C.3       1 MOL         0.0000
     26 C26         0.8227    0.0302    0.5692 C.3       1 MOL         0.0000
     27 C27         5.3423    1.3844   -0.1912 C.3       1 MOL         0.0000
     28 C28        -0.5335    2.1145   -0.0482 C.3       1 MOL         0.0000
     29 C29         3.9919    1.4636   -0.9377 C.3       1 MOL         0.0000
     30 N1          2.9295    1.0267   -0.0605 N.am      1 MOL         0.0000
     31 N2         -0.5319    0.6881    0.4003 N.4       1 MOL         0.0000
     32 O1         -0.8535    4.1257   -2.8288 O.co2     1 MOL         0.0000
     33 O2         -1.7215    2.0923   -3.2874 O.co2     1 MOL         0.0000
     34 O3          1.5179    0.1256   -1.6785 O.2       1 MOL         0.0000
     35 O4         -5.7216    4.3701   -0.1170 O.3       1 MOL         0.0000
     36 O5         -4.1780    4.1911   -2.5452 O.3       1 MOL         0.0000
     37 H1          7.1969   -3.6487    0.3134 H         1 MOL         0.0000
     38 H2          2.9472    6.3644   -2.9369 H         1 MOL         0.0000
     39 H3          5.7262   -2.6874    2.0650 H         1 MOL         0.0000
     40 H4          7.8135   -2.2917   -1.6705 H         1 MOL         0.0000
     41 H5          2.2052    5.7764   -0.6436 H         1 MOL         0.0000
     42 H6          4.1695    4.6982   -4.3106 H         1 MOL         0.0000
     43 H7          4.8718   -0.3780    1.8381 H         1 MOL         0.0000
     44 H8          6.9644    0.0184   -1.9065 H         1 MOL         0.0000
     45 H9          2.6818    3.5318    0.2778 H         1 MOL         0.0000
     46 H10         4.6509    2.4511   -3.3984 H         1 MOL         0.0000
     47 H11        -2.2743    2.3772    1.9931 H         1 MOL         0.0000
     48 H12        -4.5347    3.3602    1.9490 H         1 MOL         0.0000
     49 H13        -0.1735   -1.6459   -1.5129 H         1 MOL         0.0000
     50 H14        -1.2652   -2.4140   -0.3629 H         1 MOL         0.0000
     51 H15         0.0687   -1.7554    1.5138 H         1 MOL         0.0000
     52 H16         1.3217   -2.0917    0.3048 H         1 MOL         0.0000
     53 H17        -1.5531    0.2070   -1.4190 H         1 MOL         0.0000
     54 H18        -2.3477   -0.3462    0.0938 H         1 MOL         0.0000
     55 H19        -5.4758    6.1092   -1.1975 H         1 MOL         0.0000
     56 H20        -7.0785    5.3522   -1.2956 H         1 MOL         0.0000
     57 H21        -6.0887    3.4190   -2.5934 H         1 MOL         0.0000
     58 H22        -5.8557    4.9696   -3.4259 H         1 MOL         0.0000
     59 H23         1.2294    0.3476    1.5345 H         1 MOL         0.0000
     60 H24         6.1020    1.9648   -0.7333 H         1 MOL         0.0000
     61 H25         5.2719    1.8526    0.7995 H         1 MOL         0.0000
     62 H26        -0.0480    2.1360   -1.0298 H         1 MOL         0.0000
     63 H27         0.1043    2.6650    0.6516 H         1 MOL         0.0000
     64 H28         4.0137    0.7493   -1.7707 H         1 MOL         0.0000
     65 H29         3.0276    1.1912    0.9368 H         1 MOL         0.0000
     66 H30        -0.9512    0.6913    1.3407 H         1 MOL         0.0000
@<TRIPOS>BOND
     1    1    3 ar
     2    1    4 ar
     3    2    5 ar
     4    2    6 ar
     5    3    7 ar
     6    4    8 ar
     7    5    9 ar
     8    6   10 ar
     9    7   14 ar
    10    8   14 ar
    11    9   15 ar
    12   10   15 ar
    13   11   12 ar
    14   11   16 ar
    15   12   17 ar
    16   13   16 ar
    17   13   18 ar
    18   13   19 1
    19   14   27 1
    20   15   29 1
    21   16   28 1
    22   17   18 ar
    23   17   35 1
    24   18   36 1
    25   19   32 1
    26   19   33 2
    27   20   26 1
    28   20   30 am
    29   20   34 2
    30   21   22 1
    31   21   23 1
    32   22   26 1
    33   23   31 1
    34   24   25 1
    35   24   35 1
    36   25   36 1
    37   26   31 1
    38   27   29 1
    39   28   31 1
    40   29   30 1
    41    1   37 1
    42    2   38 1
    43    3   39 1
    44    4   40 1
    45    5   41 1
    46    6   42 1
    47    7   43 1
    48    8   44 1
    49    9   45 1
    50   10   46 1
    51   11   47 1
    52   12   48 1
    53   21   49 1
    54   21   50 1
    55   22   51 1
    56   22   52 1
    57   23   53 1
    58   23   54 1
    59   24   55 1
    60   24   56 1
    61   25   57 1
    62   25   58 1
    63   26   59 1
    64   27   60 1
    65   27   61 1
    66   28   62 1
    67   28   63 1
    68   29   64 1
    69   30   65 1
    70   31   66 1
