@<TRIPOS>MOLECULE
AVX62525_0
   31    33     0     0     0
SMALL
NO_CHARGES

@<TRIPOS>ATOM
      1 C1          7.9524   -2.5971   -1.7006 C.ar      1 MOL         0.0000
      2 C2          7.6867   -3.9708   -1.5514 C.ar      1 MOL         0.0000
      3 C3          6.9091   -1.6691   -1.7827 C.ar      1 MOL         0.0000
      4 C4          6.3739   -4.4404   -1.4827 C.ar      1 MOL         0.0000
      5 C5          5.6114   -2.1403   -1.7099 C.ar      1 MOL         0.0000
      6 C6          5.3632   -3.5038   -1.5662 C.ar      1 MOL         0.0000
      7 C7          3.2762   -2.5338   -1.6282 C.2       1 MOL         0.0000
      8 C8          2.7325    2.7512   -2.1169 C.3       1 MOL         0.0000
      9 C9          3.4526    1.4443   -2.3354 C.3       1 MOL         0.0000
     10 C10         2.9452    2.9819   -0.6357 C.3       1 MOL         0.0000
     11 C11         4.3072   -1.3985   -1.7815 C.3       1 MOL         0.0000
     12 C12         3.1159    0.6960   -1.0571 C.3       1 MOL         0.0000
     13 C13         4.1395   -0.3595   -0.6862 C.3       1 MOL         0.0000
     14 N1          3.9926   -3.7307   -1.5196 N.am      1 MOL         0.0000
     15 O1          2.0626   -2.3949   -1.6085 O.2       1 MOL         0.0000
     16 O2          3.0405    1.6887   -0.0199 O.3       1 MOL         0.0000
     17 H1          8.9824   -2.2544   -1.7541 H         1 MOL         0.0000
     18 H2          8.5143   -4.6724   -1.4897 H         1 MOL         0.0000
     19 H3          7.1199   -0.6122   -1.9024 H         1 MOL         0.0000
     20 H4          6.1659   -5.4980   -1.3688 H         1 MOL         0.0000
     21 H5          3.1088    3.5704   -2.7350 H         1 MOL         0.0000
     22 H6          1.6635    2.6266   -2.3266 H         1 MOL         0.0000
     23 H7          3.1289    0.9151   -3.2358 H         1 MOL         0.0000
     24 H8          4.5313    1.6274   -2.4126 H         1 MOL         0.0000
     25 H9          3.8865    3.5094   -0.4483 H         1 MOL         0.0000
     26 H10         2.1300    3.5492   -0.1778 H         1 MOL         0.0000
     27 H11         4.1844   -0.9569   -2.7767 H         1 MOL         0.0000
     28 H12         2.1282    0.2299   -1.1355 H         1 MOL         0.0000
     29 H13         3.8291   -0.8533    0.2416 H         1 MOL         0.0000
     30 H14         5.1030    0.1248   -0.4913 H         1 MOL         0.0000
     31 H15         3.5672   -4.6449   -1.4199 H         1 MOL         0.0000
@<TRIPOS>BOND
     1    1    2 ar
     2    1    3 ar
     3    2    4 ar
     4    3    5 ar
     5    4    6 ar
     6    5    6 ar
     7    5   11 1
     8    6   14 1
     9    7   11 1
    10    7   14 am
    11    7   15 2
    12    8    9 1
    13    8   10 1
    14    9   12 1
    15   10   16 1
    16   11   13 1
    17   12   13 1
    18   12   16 1
    19    1   17 1
    20    2   18 1
    21    3   19 1
    22    4   20 1
    23    8   21 1
    24    8   22 1
    25    9   23 1
    26    9   24 1
    27   10   25 1
    28   10   26 1
    29   11   27 1
    30   12   28 1
    31   13   29 1
    32   13   30 1
    33   14   31 1
