@<TRIPOS>MOLECULE
AVX62772_0
   55    59     0     0     0
SMALL
NO_CHARGES

@<TRIPOS>ATOM
      1 C1         -1.9627   -7.1788    2.2969 C.ar      1 MOL         0.0000
      2 C2         -3.8411    1.6891    1.7379 C.ar      1 MOL         0.0000
      3 C3         -2.6178    1.1718    1.2650 C.ar      1 MOL         0.0000
      4 C4         -2.2171   -6.2488    3.3047 C.ar      1 MOL         0.0000
      5 C5         -2.8719   -7.3406    1.2514 C.ar      1 MOL         0.0000
      6 C6         -4.9660    0.8695    1.8671 C.ar      1 MOL         0.0000
      7 C7         -2.4953   -0.1752    0.9122 C.ar      1 MOL         0.0000
      8 C8         -3.3807   -5.4805    3.2672 C.ar      1 MOL         0.0000
      9 C9         -4.0355   -6.5724    1.2139 C.ar      1 MOL         0.0000
     10 C10        -6.3871   -7.0740    4.2424 C.ar      1 MOL         0.0000
     11 C11        -6.3549   -7.8989    5.3693 C.ar      1 MOL         0.0000
     12 C12        -4.8219   -0.4562    1.5132 C.ar      1 MOL         0.0000
     13 C13        -3.6182   -0.9653    1.0482 C.ar      1 MOL         0.0000
     14 C14        -4.2900   -5.6423    2.2218 C.ar      1 MOL         0.0000
     15 C15        -6.4215   -5.6751    4.3803 C.ar      1 MOL         0.0000
     16 C16        -6.4242   -5.0852    5.6466 C.ar      1 MOL         0.0000
     17 C17        -6.3584   -7.2913    6.6080 C.ar      1 MOL         0.0000
     18 C18        -6.3920   -5.9221    6.7430 C.ar      1 MOL         0.0000
     19 C19        -5.7967   -1.5459    1.5342 C.2       1 MOL         0.0000
     20 C20        -3.8063   -2.3880    0.7652 C.2       1 MOL         0.0000
     21 C21        -6.4535   -4.8572    3.1599 C.2       1 MOL         0.0000
     22 C22        -5.5250   -4.8274    2.1816 C.2       1 MOL         0.0000
     23 C23        -6.4583   -3.6403    5.8320 C.2       1 MOL         0.0000
     24 C24        -6.3496   -6.8073    8.7170 C.3       1 MOL         0.0000
     25 C25        -5.7252   -3.9702    0.9509 C.3       1 MOL         0.0000
     26 C26        -5.3108   -2.9365    6.5816 C.3       1 MOL         0.0000
     27 C27        -5.0565   -1.5074    6.1187 C.3       1 MOL         0.0000
     28 N1         -5.1206   -2.6594    1.0809 N.am      1 MOL         0.0000
     29 O1         -6.9533   -1.4216    1.8919 O.2       1 MOL         0.0000
     30 O2         -2.9311   -3.1183    0.3388 O.2       1 MOL         0.0000
     31 O3         -7.4083   -2.9659    5.3887 O.2       1 MOL         0.0000
     32 O4         -6.3295   -7.9286    7.8101 O.3       1 MOL         0.0000
     33 O5         -6.3887   -5.5309    8.0464 O.3       1 MOL         0.0000
     34 O6         -4.7017   -1.5114    4.7418 O.3       1 MOL         0.0000
     35 H1         -1.0561   -7.7761    2.3254 H         1 MOL         0.0000
     36 H2         -3.9078    2.7406    2.0052 H         1 MOL         0.0000
     37 H3         -1.7591    1.8320    1.1740 H         1 MOL         0.0000
     38 H4         -1.5087   -6.1218    4.1183 H         1 MOL         0.0000
     39 H5         -2.6733   -8.0639    0.4660 H         1 MOL         0.0000
     40 H6         -5.9063    1.2676    2.2302 H         1 MOL         0.0000
     41 H7         -1.5550   -0.5722    0.5486 H         1 MOL         0.0000
     42 H8         -3.5653   -4.7596    4.0602 H         1 MOL         0.0000
     43 H9         -4.7345   -6.7101    0.3924 H         1 MOL         0.0000
     44 H10        -6.3864   -7.5333    3.2561 H         1 MOL         0.0000
     45 H11        -6.3296   -8.9779    5.2676 H         1 MOL         0.0000
     46 H12        -7.3329   -4.2209    3.0796 H         1 MOL         0.0000
     47 H13        -7.2323   -6.8925    9.3613 H         1 MOL         0.0000
     48 H14        -5.4516   -6.8469    9.3444 H         1 MOL         0.0000
     49 H15        -6.7920   -3.8379    0.7340 H         1 MOL         0.0000
     50 H16        -5.2984   -4.4729    0.0754 H         1 MOL         0.0000
     51 H17        -5.5775   -2.9145    7.6437 H         1 MOL         0.0000
     52 H18        -4.4028   -3.5314    6.4333 H         1 MOL         0.0000
     53 H19        -5.9378   -0.8726    6.2555 H         1 MOL         0.0000
     54 H20        -4.2211   -1.0774    6.6804 H         1 MOL         0.0000
     55 H21        -5.4496   -1.9017    4.2616 H         1 MOL         0.0000
@<TRIPOS>BOND
     1    1    4 ar
     2    1    5 ar
     3    2    3 ar
     4    2    6 ar
     5    3    7 ar
     6    4    8 ar
     7    5    9 ar
     8    6   12 ar
     9    7   13 ar
    10    8   14 ar
    11    9   14 ar
    12   10   11 ar
    13   10   15 ar
    14   11   17 ar
    15   12   13 ar
    16   12   19 1
    17   13   20 1
    18   14   22 1
    19   15   16 ar
    20   15   21 1
    21   16   18 ar
    22   16   23 1
    23   17   18 ar
    24   17   32 1
    25   18   33 1
    26   19   28 am
    27   19   29 2
    28   20   28 am
    29   20   30 2
    30   21   22 2
    31   22   25 1
    32   23   26 1
    33   23   31 2
    34   24   32 1
    35   24   33 1
    36   25   28 1
    37   26   27 1
    38   27   34 1
    39    1   35 1
    40    2   36 1
    41    3   37 1
    42    4   38 1
    43    5   39 1
    44    6   40 1
    45    7   41 1
    46    8   42 1
    47    9   43 1
    48   10   44 1
    49   11   45 1
    50   21   46 1
    51   24   47 1
    52   24   48 1
    53   25   49 1
    54   25   50 1
    55   26   51 1
    56   26   52 1
    57   27   53 1
    58   27   54 1
    59   34   55 1
