@<TRIPOS>MOLECULE
AVX62808_1
   63    67     0     0     0
SMALL
NO_CHARGES

@<TRIPOS>ATOM
      1 C1          7.7775    1.2847    1.1013 C.ar      1 MOL         0.0000
      2 C2          3.1028    5.3349   -2.5952 C.ar      1 MOL         0.0000
      3 C3          7.0123    2.4497    1.1527 C.ar      1 MOL         0.0000
      4 C4          7.3158    0.1778    0.3890 C.ar      1 MOL         0.0000
      5 C5          3.8734    4.4262   -3.3205 C.ar      1 MOL         0.0000
      6 C6          2.6206    4.9890   -1.3328 C.ar      1 MOL         0.0000
      7 C7          5.7853    2.5080    0.4919 C.ar      1 MOL         0.0000
      8 C8          6.0888    0.2361   -0.2718 C.ar      1 MOL         0.0000
      9 C9          4.1617    3.1715   -2.7835 C.ar      1 MOL         0.0000
     10 C10         2.9089    3.7343   -0.7958 C.ar      1 MOL         0.0000
     11 C11        -2.6713    2.7618    1.0572 C.ar      1 MOL         0.0000
     12 C12        -3.9515    3.3158    1.0333 C.ar      1 MOL         0.0000
     13 C13        -2.4291    3.2017   -1.3080 C.ar      1 MOL         0.0000
     14 C14         5.3235    1.4011   -0.2204 C.ar      1 MOL         0.0000
     15 C15         3.6794    2.8256   -1.5211 C.ar      1 MOL         0.0000
     16 C16        -1.9093    2.7096   -0.1105 C.ar      1 MOL         0.0000
     17 C17        -4.4670    3.8202   -0.1610 C.ar      1 MOL         0.0000
     18 C18        -3.7146    3.7434   -1.3356 C.ar      1 MOL         0.0000
     19 C19        -1.6227    3.1362   -2.5440 C.2       1 MOL         0.0000
     20 C20         1.7867    0.3958   -0.5139 C.2       1 MOL         0.0000
     21 C21        -0.6192   -1.5440   -0.5163 C.3       1 MOL         0.0000
     22 C22         0.4695   -1.4465    0.5406 C.3       1 MOL         0.0000
     23 C23        -1.3942   -0.2380   -0.4317 C.3       1 MOL         0.0000
     24 C24        -6.0029    5.1508   -1.2820 C.3       1 MOL         0.0000
     25 C25        -5.5933    4.3959   -2.5316 C.3       1 MOL         0.0000
     26 C26         0.8227    0.0302    0.5692 C.3       1 MOL         0.0000
     27 C27        -0.5335    2.1145   -0.0482 C.3       1 MOL         0.0000
     28 C28         3.9919    1.4636   -0.9377 C.3       1 MOL         0.0000
     29 N1          2.9295    1.0267   -0.0605 N.am      1 MOL         0.0000
     30 N2         -0.5319    0.6881    0.4003 N.4       1 MOL         0.0000
     31 O1         -0.8535    4.1257   -2.8288 O.co2     1 MOL         0.0000
     32 O2         -1.7215    2.0923   -3.2874 O.co2     1 MOL         0.0000
     33 O3          1.5179    0.1256   -1.6785 O.2       1 MOL         0.0000
     34 O4         -5.7216    4.3701   -0.1170 O.3       1 MOL         0.0000
     35 O5         -4.1780    4.1911   -2.5452 O.3       1 MOL         0.0000
     36 H1          8.7335    1.2400    1.6148 H         1 MOL         0.0000
     37 H2          2.8795    6.3123   -3.0129 H         1 MOL         0.0000
     38 H3          7.3722    3.3120    1.7064 H         1 MOL         0.0000
     39 H4          7.9118   -0.7290    0.3478 H         1 MOL         0.0000
     40 H5          4.2499    4.6958   -4.3029 H         1 MOL         0.0000
     41 H6          2.0215    5.6966   -0.7674 H         1 MOL         0.0000
     42 H7          5.1958    3.4199    0.5376 H         1 MOL         0.0000
     43 H8          5.7370   -0.6312   -0.8243 H         1 MOL         0.0000
     44 H9          4.7627    2.4699   -3.3559 H         1 MOL         0.0000
     45 H10         2.5288    3.4734    0.1883 H         1 MOL         0.0000
     46 H11        -2.2743    2.3771    1.9931 H         1 MOL         0.0000
     47 H12        -4.5347    3.3602    1.9490 H         1 MOL         0.0000
     48 H13        -0.1735   -1.6459   -1.5129 H         1 MOL         0.0000
     49 H14        -1.2652   -2.4140   -0.3629 H         1 MOL         0.0000
     50 H15         0.0687   -1.7554    1.5138 H         1 MOL         0.0000
     51 H16         1.3217   -2.0917    0.3048 H         1 MOL         0.0000
     52 H17        -1.5531    0.2070   -1.4190 H         1 MOL         0.0000
     53 H18        -2.3477   -0.3462    0.0938 H         1 MOL         0.0000
     54 H19        -5.4758    6.1092   -1.1975 H         1 MOL         0.0000
     55 H20        -7.0785    5.3522   -1.2956 H         1 MOL         0.0000
     56 H21        -6.0887    3.4190   -2.5934 H         1 MOL         0.0000
     57 H22        -5.8557    4.9696   -3.4259 H         1 MOL         0.0000
     58 H23         1.2294    0.3476    1.5345 H         1 MOL         0.0000
     59 H24        -0.0480    2.1360   -1.0298 H         1 MOL         0.0000
     60 H25         0.1043    2.6650    0.6516 H         1 MOL         0.0000
     61 H26         3.9889    0.7330   -1.7571 H         1 MOL         0.0000
     62 H27         3.0276    1.1912    0.9368 H         1 MOL         0.0000
     63 H28        -0.9512    0.6913    1.3407 H         1 MOL         0.0000
@<TRIPOS>BOND
     1    1    3 ar
     2    1    4 ar
     3    2    5 ar
     4    2    6 ar
     5    3    7 ar
     6    4    8 ar
     7    5    9 ar
     8    6   10 ar
     9    7   14 ar
    10    8   14 ar
    11    9   15 ar
    12   10   15 ar
    13   11   12 ar
    14   11   16 ar
    15   12   17 ar
    16   13   16 ar
    17   13   18 ar
    18   13   19 1
    19   14   28 1
    20   15   28 1
    21   16   27 1
    22   17   18 ar
    23   17   34 1
    24   18   35 1
    25   19   31 1
    26   19   32 2
    27   20   26 1
    28   20   29 am
    29   20   33 2
    30   21   22 1
    31   21   23 1
    32   22   26 1
    33   23   30 1
    34   24   25 1
    35   24   34 1
    36   25   35 1
    37   26   30 1
    38   27   30 1
    39   28   29 1
    40    1   36 1
    41    2   37 1
    42    3   38 1
    43    4   39 1
    44    5   40 1
    45    6   41 1
    46    7   42 1
    47    8   43 1
    48    9   44 1
    49   10   45 1
    50   11   46 1
    51   12   47 1
    52   21   48 1
    53   21   49 1
    54   22   50 1
    55   22   51 1
    56   23   52 1
    57   23   53 1
    58   24   54 1
    59   24   55 1
    60   25   56 1
    61   25   57 1
    62   26   58 1
    63   27   59 1
    64   27   60 1
    65   28   61 1
    66   29   62 1
    67   30   63 1
