AVX62525_1
  -OEChem-04011315033D

 31 33  0     1  0  0  0  0  0999 V2000
    7.3851   -3.4988   -1.1144 C   0  0  0  0  0  0  0  0  0  0  0  0
    6.8144   -4.7426   -0.7870 C   0  0  0  0  0  0  0  0  0  0  0  0
    6.7476   -2.3031   -0.7680 C   0  0  0  0  0  0  0  0  0  0  0  0
    5.5972   -4.8124   -0.1073 C   0  0  0  0  0  0  0  0  0  0  0  0
    5.5402   -2.3793   -0.0986 C   0  0  0  0  0  0  0  0  0  0  0  0
    4.9889   -3.6179    0.2224 C   0  0  0  0  0  0  0  0  0  0  0  0
    3.4825   -2.0794    1.0375 C   0  0  0  0  0  0  0  0  0  0  0  0
    3.2872    3.2394   -0.5305 C   0  0  0  0  0  0  0  0  0  0  0  0
    3.0900    1.8969   -1.1886 C   0  0  0  0  0  0  0  0  0  0  0  0
    4.6137    3.0505    0.1746 C   0  0  0  0  0  0  0  0  0  0  0  0
    4.6436   -1.2855    0.4074 C   0  0  2  0  0  0  0  0  0  0  0  0
    3.6352    0.9568   -0.1273 C   0  0  1  0  0  0  0  0  0  0  0  0
    4.1395   -0.3595   -0.6862 C   0  0  0  0  0  0  0  0  0  0  0  0
    3.7827   -3.4379    0.8896 N   0  0  0  0  0  0  0  0  0  0  0  0
    2.4925   -1.5952    1.5647 O   0  0  0  0  0  0  0  0  0  0  0  0
    4.7126    1.6594    0.5148 O   0  0  0  0  0  0  0  0  0  0  0  0
    8.3346   -3.4696   -1.6425 H   0  0  0  0  0  0  0  0  0  0  0  0
    7.3297   -5.6575   -1.0667 H   0  0  0  0  0  0  0  0  0  0  0  0
    7.1946   -1.3475   -1.0187 H   0  0  0  0  0  0  0  0  0  0  0  0
    5.1551   -5.7688    0.1468 H   0  0  0  0  0  0  0  0  0  0  0  0
    3.2921    4.0776   -1.2321 H   0  0  0  0  0  0  0  0  0  0  0  0
    2.4933    3.4132    0.2056 H   0  0  0  0  0  0  0  0  0  0  0  0
    2.0481    1.6884   -1.4468 H   0  0  0  0  0  0  0  0  0  0  0  0
    3.6889    1.8457   -2.1060 H   0  0  0  0  0  0  0  0  0  0  0  0
    5.4520    3.2912   -0.4878 H   0  0  0  0  0  0  0  0  0  0  0  0
    4.6983    3.6584    1.0797 H   0  0  0  0  0  0  0  0  0  0  0  0
    5.1485   -0.7282    1.2042 H   0  0  0  0  0  0  0  0  0  0  0  0
    2.8747    0.7582    0.6350 H   0  0  0  0  0  0  0  0  0  0  0  0
    4.9476   -0.1629   -1.3998 H   0  0  0  0  0  0  0  0  0  0  0  0
    3.3302   -0.8515   -1.2373 H   0  0  0  0  0  0  0  0  0  0  0  0
    3.2008   -4.2013    1.2139 H   0  0  0  0  0  0  0  0  0  0  0  0
  1  2  2  0  0  0  0
  1  3  1  0  0  0  0
  2  4  1  0  0  0  0
  3  5  2  0  0  0  0
  4  6  2  0  0  0  0
  5  6  1  0  0  0  0
  5 11  1  0  0  0  0
  6 14  1  0  0  0  0
  7 11  1  0  0  0  0
  7 14  1  0  0  0  0
  7 15  2  0  0  0  0
  8  9  1  0  0  0  0
  8 10  1  0  0  0  0
  9 12  1  0  0  0  0
 10 16  1  0  0  0  0
 11 13  1  0  0  0  0
 12 13  1  0  0  0  0
 12 16  1  0  0  0  0
  1 17  1  0  0  0  0
  2 18  1  0  0  0  0
  3 19  1  0  0  0  0
  4 20  1  0  0  0  0
  8 21  1  0  0  0  0
  8 22  1  0  0  0  0
  9 23  1  0  0  0  0
  9 24  1  0  0  0  0
 10 25  1  0  0  0  0
 10 26  1  0  0  0  0
 11 27  1  0  0  0  0
 12 28  1  0  0  0  0
 13 29  1  0  0  0  0
 13 30  1  0  0  0  0
 14 31  1  0  0  0  0
M  END
$$$$
