AVX62526_0
  -OEChem-04011315033D

 29 31  0     0  0  0  0  0  0999 V2000
    0.3043   -9.3656   -2.8481 C   0  0  0  0  0  0  0  0  0  0  0  0
    0.3519   -2.0775    0.4422 C   0  0  0  0  0  0  0  0  0  0  0  0
    0.0489   -1.0083   -0.4029 C   0  0  0  0  0  0  0  0  0  0  0  0
   -0.3205   -8.1931   -2.3563 C   0  0  0  0  0  0  0  0  0  0  0  0
   -0.1402   -2.5032   -2.3253 C   0  0  0  0  0  0  0  0  0  0  0  0
    1.3177   -8.9686   -3.6923 C   0  0  0  0  0  0  0  0  0  0  0  0
    0.1604   -3.5565   -1.4826 C   0  0  0  0  0  0  0  0  0  0  0  0
    0.4008   -3.3366   -0.1231 C   0  0  0  0  0  0  0  0  0  0  0  0
   -0.1948   -1.2188   -1.7733 C   0  0  0  0  0  0  0  0  0  0  0  0
    0.3300   -7.1151   -2.9152 C   0  0  0  0  0  0  0  0  0  0  0  0
    0.3033   -4.9945   -1.6833 C   0  0  0  0  0  0  0  0  0  0  0  0
    0.6440   -5.6207   -0.3620 C   0  0  0  0  0  0  0  0  0  0  0  0
    0.1699   -5.6935   -2.8121 C   0  0  0  0  0  0  0  0  0  0  0  0
    1.3237   -7.5985   -3.7257 N   0  0  0  0  0  0  0  0  0  0  0  0
    0.6826   -4.5427    0.5281 N   0  0  0  0  0  0  0  0  0  0  0  0
   -0.5059   -0.0897   -2.6228 N   0  3  0  0  0  0  0  0  0  0  0  0
    0.8377   -6.8023   -0.1432 O   0  0  0  0  0  0  0  0  0  0  0  0
    0.0451  -10.3885   -2.6131 H   0  0  0  0  0  0  0  0  0  0  0  0
    0.5388   -1.9168    1.4978 H   0  0  0  0  0  0  0  0  0  0  0  0
    0.0023   -0.0032    0.0103 H   0  0  0  0  0  0  0  0  0  0  0  0
   -1.1536   -8.1444   -1.6684 H   0  0  0  0  0  0  0  0  0  0  0  0
   -0.3277   -2.6645   -3.3820 H   0  0  0  0  0  0  0  0  0  0  0  0
    2.0330   -9.5366   -4.2699 H   0  0  0  0  0  0  0  0  0  0  0  0
   -0.0503   -5.1406   -3.7253 H   0  0  0  0  0  0  0  0  0  0  0  0
    1.9665   -7.0368   -4.2679 H   0  0  0  0  0  0  0  0  0  0  0  0
    0.8866   -4.6097    1.5183 H   0  0  0  0  0  0  0  0  0  0  0  0
   -0.6599   -0.4074   -3.5891 H   0  0  0  0  0  0  0  0  0  0  0  0
   -1.3543    0.3959   -2.3017 H   0  0  0  0  0  0  0  0  0  0  0  0
    0.2715    0.5843   -2.6177 H   0  0  0  0  0  0  0  0  0  0  0  0
  1  4  1  0  0  0  0
  1  6  2  0  0  0  0
  2  3  1  0  0  0  0
  2  8  2  0  0  0  0
  3  9  2  0  0  0  0
  4 10  2  0  0  0  0
  5  7  2  0  0  0  0
  5  9  1  0  0  0  0
  6 14  1  0  0  0  0
  7  8  1  0  0  0  0
  7 11  1  0  0  0  0
  8 15  1  0  0  0  0
  9 16  1  0  0  0  0
 10 13  1  0  0  0  0
 10 14  1  0  0  0  0
 11 12  1  0  0  0  0
 11 13  2  0  0  0  0
 12 15  1  0  0  0  0
 12 17  2  0  0  0  0
  1 18  1  0  0  0  0
  2 19  1  0  0  0  0
  3 20  1  0  0  0  0
  4 21  1  0  0  0  0
  5 22  1  0  0  0  0
  6 23  1  0  0  0  0
 13 24  1  0  0  0  0
 14 25  1  0  0  0  0
 15 26  1  0  0  0  0
 16 27  1  0  0  0  0
 16 28  1  0  0  0  0
 16 29  1  0  0  0  0
M  CHG  1  16   1
M  END
$$$$
