@<TRIPOS>MOLECULE
AVX62525_2
   31    33     0     0     0
SMALL
NO_CHARGES

@<TRIPOS>ATOM
      1 C1          0.0958   -8.2853    2.6429 C.ar      1 MOL         0.0000
      2 C2         -1.2787   -8.5554    2.7750 C.ar      1 MOL         0.0000
      3 C3          0.5431   -7.1812    1.9100 C.ar      1 MOL         0.0000
      4 C4         -2.2296   -7.7272    2.1762 C.ar      1 MOL         0.0000
      5 C5         -0.4039   -6.3626    1.3228 C.ar      1 MOL         0.0000
      6 C6         -1.7616   -6.6446    1.4588 C.ar      1 MOL         0.0000
      7 C7         -1.6875   -4.7348    0.1753 C.2       1 MOL         0.0000
      8 C8          2.8609   -1.5148   -0.2011 C.3       1 MOL         0.0000
      9 C9          1.8876   -1.9016    0.8839 C.3       1 MOL         0.0000
     10 C10         3.2041   -2.8590   -0.8072 C.3       1 MOL         0.0000
     11 C11        -0.2298   -5.1326    0.4784 C.3       1 MOL         0.0000
     12 C12         1.1141   -3.0223    0.2111 C.3       1 MOL         0.0000
     13 C13         0.5047   -4.0085    1.1886 C.3       1 MOL         0.0000
     14 N1         -2.5112   -5.6883    0.7836 N.am      1 MOL         0.0000
     15 O1         -2.0390   -3.7640   -0.4778 O.2       1 MOL         0.0000
     16 O2          2.0513   -3.6986   -0.6439 O.3       1 MOL         0.0000
     17 H1          0.8183   -8.9452    3.1158 H         1 MOL         0.0000
     18 H2         -1.6016   -9.4194    3.3498 H         1 MOL         0.0000
     19 H3          1.6038   -6.9808    1.8076 H         1 MOL         0.0000
     20 H4         -3.2890   -7.9331    2.2754 H         1 MOL         0.0000
     21 H5          2.3579   -0.8860   -0.9453 H         1 MOL         0.0000
     22 H6          3.7379   -0.9752    0.1654 H         1 MOL         0.0000
     23 H7          2.4385   -2.2716    1.7571 H         1 MOL         0.0000
     24 H8          1.2465   -1.0767    1.2069 H         1 MOL         0.0000
     25 H9          3.4614   -2.7880   -1.8678 H         1 MOL         0.0000
     26 H10         4.0374   -3.3315   -0.2764 H         1 MOL         0.0000
     27 H11         0.2567   -5.3961   -0.4673 H         1 MOL         0.0000
     28 H12         0.3253   -2.6127   -0.4284 H         1 MOL         0.0000
     29 H13        -0.1899   -3.4786    1.8502 H         1 MOL         0.0000
     30 H14         1.2970   -4.4297    1.8176 H         1 MOL         0.0000
     31 H15        -3.5234   -5.6825    0.7379 H         1 MOL         0.0000
@<TRIPOS>BOND
     1    1    2 ar
     2    1    3 ar
     3    2    4 ar
     4    3    5 ar
     5    4    6 ar
     6    5    6 ar
     7    5   11 1
     8    6   14 1
     9    7   11 1
    10    7   14 am
    11    7   15 2
    12    8    9 1
    13    8   10 1
    14    9   12 1
    15   10   16 1
    16   11   13 1
    17   12   13 1
    18   12   16 1
    19    1   17 1
    20    2   18 1
    21    3   19 1
    22    4   20 1
    23    8   21 1
    24    8   22 1
    25    9   23 1
    26    9   24 1
    27   10   25 1
    28   10   26 1
    29   11   27 1
    30   12   28 1
    31   13   29 1
    32   13   30 1
    33   14   31 1
