AVX62778_0
  -OEChem-04011315033D

 49 52  0     0  0  0  0  0  0999 V2000
    1.4794   -4.1242    2.5910 C   0  0  0  0  0  0  0  0  0  0  0  0
    2.1650   -2.9146    2.4794 C   0  0  0  0  0  0  0  0  0  0  0  0
    0.4811   -4.4474    1.6719 C   0  0  0  0  0  0  0  0  0  0  0  0
    1.8524   -2.0283    1.4488 C   0  0  0  0  0  0  0  0  0  0  0  0
    0.1685   -3.5610    0.6413 C   0  0  0  0  0  0  0  0  0  0  0  0
   -1.0935   -0.1030    1.8271 C   0  0  0  0  0  0  0  0  0  0  0  0
   -1.3530    0.4583    3.0797 C   0  0  0  0  0  0  0  0  0  0  0  0
    6.1396   -1.4344   -1.3678 C   0  0  0  0  0  0  0  0  0  0  0  0
    5.9834   -3.0339    0.1545 C   0  0  0  0  0  0  0  0  0  0  0  0
    0.8542   -2.3514    0.5297 C   0  0  0  0  0  0  0  0  0  0  0  0
   -0.1481    0.4787    0.9641 C   0  0  0  0  0  0  0  0  0  0  0  0
    0.5485    1.6286    1.3437 C   0  0  0  0  0  0  0  0  0  0  0  0
   -0.6516    1.5936    3.4303 C   0  0  0  0  0  0  0  0  0  0  0  0
    0.2737    2.1630    2.5857 C   0  0  0  0  0  0  0  0  0  0  0  0
    5.1697   -2.3078   -1.7719 C   0  0  0  0  0  0  0  0  0  0  0  0
    0.0823   -0.1497   -0.3310 C   0  0  0  0  0  0  0  0  0  0  0  0
    0.5220   -1.4112   -0.5642 C   0  0  0  0  0  0  0  0  0  0  0  0
    1.5481    2.2630    0.4664 C   0  0  0  0  0  0  0  0  0  0  0  0
    2.9771   -1.5768   -2.7896 C   0  0  0  0  0  0  0  0  0  0  0  0
    0.1843    3.3377    4.4006 C   0  0  0  0  0  0  0  0  0  0  0  0
    4.2846   -2.3187   -2.9900 C   0  0  0  0  0  0  0  0  0  0  0  0
    0.6598   -1.9438   -1.9738 C   0  0  0  0  0  0  0  0  0  0  0  0
    6.6256   -1.9079   -0.1730 N   0  0  0  0  0  0  0  0  0  0  0  0
    5.0945   -3.2875   -0.8114 N   0  3  0  0  0  0  0  0  0  0  0  0
    2.0128   -2.4119   -2.2673 N   0  0  0  0  0  0  0  0  0  0  0  0
    2.7761    1.8882    0.5565 O   0  5  0  0  0  0  0  0  0  0  0  0
    1.1587    3.1702   -0.3594 O   0  0  0  0  0  0  0  0  0  0  0  0
    2.8234   -0.3886   -3.0604 O   0  0  0  0  0  0  0  0  0  0  0  0
   -0.7698    2.2750    4.6024 O   0  0  0  0  0  0  0  0  0  0  0  0
    0.8505    3.2723    3.1230 O   0  0  0  0  0  0  0  0  0  0  0  0
    1.7236   -4.8149    3.3927 H   0  0  0  0  0  0  0  0  0  0  0  0
    2.9432   -2.6632    3.1943 H   0  0  0  0  0  0  0  0  0  0  0  0
   -0.0520   -5.3897    1.7580 H   0  0  0  0  0  0  0  0  0  0  0  0
    2.3957   -1.0891    1.3749 H   0  0  0  0  0  0  0  0  0  0  0  0
   -0.6121   -3.8273   -0.0674 H   0  0  0  0  0  0  0  0  0  0  0  0
   -1.6352   -0.9991    1.5315 H   0  0  0  0  0  0  0  0  0  0  0  0
   -2.0816    0.0125    3.7475 H   0  0  0  0  0  0  0  0  0  0  0  0
    6.5676   -0.5298   -1.7516 H   0  0  0  0  0  0  0  0  0  0  0  0
    6.1511   -3.6286    1.0369 H   0  0  0  0  0  0  0  0  0  0  0  0
   -0.1273    0.4943   -1.1892 H   0  0  0  0  0  0  0  0  0  0  0  0
   -0.3388    4.2980    4.4755 H   0  0  0  0  0  0  0  0  0  0  0  0
    0.9396    3.2853    5.1931 H   0  0  0  0  0  0  0  0  0  0  0  0
    4.8194   -1.8704   -3.8370 H   0  0  0  0  0  0  0  0  0  0  0  0
    4.0597   -3.3542   -3.2755 H   0  0  0  0  0  0  0  0  0  0  0  0
    0.3928   -1.1770   -2.7109 H   0  0  0  0  0  0  0  0  0  0  0  0
   -0.0433   -2.7702   -2.1284 H   0  0  0  0  0  0  0  0  0  0  0  0
    7.3589   -1.4716    0.3788 H   0  0  0  0  0  0  0  0  0  0  0  0
    4.4622   -4.0829   -0.8274 H   0  0  0  0  0  0  0  0  0  0  0  0
    2.2479   -3.3743   -2.0823 H   0  0  0  0  0  0  0  0  0  0  0  0
  1  2  2  0  0  0  0
  1  3  1  0  0  0  0
  2  4  1  0  0  0  0
  3  5  2  0  0  0  0
  4 10  2  0  0  0  0
  5 10  1  0  0  0  0
  6  7  2  0  0  0  0
  6 11  1  0  0  0  0
  7 13  1  0  0  0  0
  8 15  2  0  0  0  0
  8 23  1  0  0  0  0
  9 23  1  0  0  0  0
  9 24  2  0  0  0  0
 10 17  1  0  0  0  0
 11 12  2  0  0  0  0
 11 16  1  0  0  0  0
 12 14  1  0  0  0  0
 12 18  1  0  0  0  0
 13 14  2  0  0  0  0
 13 29  1  0  0  0  0
 14 30  1  0  0  0  0
 15 21  1  0  0  0  0
 15 24  1  0  0  0  0
 16 17  2  0  0  0  0
 17 22  1  0  0  0  0
 18 26  1  0  0  0  0
 18 27  2  0  0  0  0
 19 21  1  0  0  0  0
 19 25  1  0  0  0  0
 19 28  2  0  0  0  0
 20 29  1  0  0  0  0
 20 30  1  0  0  0  0
 22 25  1  0  0  0  0
  1 31  1  0  0  0  0
  2 32  1  0  0  0  0
  3 33  1  0  0  0  0
  4 34  1  0  0  0  0
  5 35  1  0  0  0  0
  6 36  1  0  0  0  0
  7 37  1  0  0  0  0
  8 38  1  0  0  0  0
  9 39  1  0  0  0  0
 16 40  1  0  0  0  0
 20 41  1  0  0  0  0
 20 42  1  0  0  0  0
 21 43  1  0  0  0  0
 21 44  1  0  0  0  0
 22 45  1  0  0  0  0
 22 46  1  0  0  0  0
 23 47  1  0  0  0  0
 24 48  1  0  0  0  0
 25 49  1  0  0  0  0
M  CHG  2  24   1  26  -1
M  END
$$$$
