AVX62808_1
  -OEChem-04011315033D

 63 67  0     1  0  0  0  0  0999 V2000
    7.7775    1.2847    1.1013 C   0  0  0  0  0  0  0  0  0  0  0  0
    3.1028    5.3349   -2.5952 C   0  0  0  0  0  0  0  0  0  0  0  0
    7.0123    2.4497    1.1527 C   0  0  0  0  0  0  0  0  0  0  0  0
    7.3158    0.1778    0.3890 C   0  0  0  0  0  0  0  0  0  0  0  0
    3.8734    4.4262   -3.3205 C   0  0  0  0  0  0  0  0  0  0  0  0
    2.6206    4.9890   -1.3328 C   0  0  0  0  0  0  0  0  0  0  0  0
    5.7853    2.5080    0.4919 C   0  0  0  0  0  0  0  0  0  0  0  0
    6.0888    0.2361   -0.2718 C   0  0  0  0  0  0  0  0  0  0  0  0
    4.1617    3.1715   -2.7835 C   0  0  0  0  0  0  0  0  0  0  0  0
    2.9089    3.7343   -0.7958 C   0  0  0  0  0  0  0  0  0  0  0  0
   -2.6713    2.7618    1.0572 C   0  0  0  0  0  0  0  0  0  0  0  0
   -3.9515    3.3158    1.0333 C   0  0  0  0  0  0  0  0  0  0  0  0
   -2.4291    3.2017   -1.3080 C   0  0  0  0  0  0  0  0  0  0  0  0
    5.3235    1.4011   -0.2204 C   0  0  0  0  0  0  0  0  0  0  0  0
    3.6794    2.8256   -1.5211 C   0  0  0  0  0  0  0  0  0  0  0  0
   -1.9093    2.7096   -0.1105 C   0  0  0  0  0  0  0  0  0  0  0  0
   -4.4670    3.8202   -0.1610 C   0  0  0  0  0  0  0  0  0  0  0  0
   -3.7146    3.7434   -1.3356 C   0  0  0  0  0  0  0  0  0  0  0  0
   -1.6227    3.1362   -2.5440 C   0  0  0  0  0  0  0  0  0  0  0  0
    1.7867    0.3958   -0.5139 C   0  0  0  0  0  0  0  0  0  0  0  0
   -0.6192   -1.5440   -0.5163 C   0  0  0  0  0  0  0  0  0  0  0  0
    0.4695   -1.4465    0.5406 C   0  0  0  0  0  0  0  0  0  0  0  0
   -1.3942   -0.2380   -0.4317 C   0  0  0  0  0  0  0  0  0  0  0  0
   -6.0029    5.1508   -1.2820 C   0  0  0  0  0  0  0  0  0  0  0  0
   -5.5933    4.3959   -2.5316 C   0  0  0  0  0  0  0  0  0  0  0  0
    0.8227    0.0302    0.5692 C   0  0  2  0  0  0  0  0  0  0  0  0
   -0.5335    2.1145   -0.0482 C   0  0  0  0  0  0  0  0  0  0  0  0
    3.9919    1.4636   -0.9377 C   0  0  0  0  0  0  0  0  0  0  0  0
    2.9295    1.0267   -0.0605 N   0  0  0  0  0  0  0  0  0  0  0  0
   -0.5319    0.6881    0.4003 N   0  3  1  0  0  0  0  0  0  0  0  0
   -0.8535    4.1257   -2.8288 O   0  5  0  0  0  0  0  0  0  0  0  0
   -1.7215    2.0923   -3.2874 O   0  0  0  0  0  0  0  0  0  0  0  0
    1.5179    0.1256   -1.6785 O   0  0  0  0  0  0  0  0  0  0  0  0
   -5.7216    4.3701   -0.1170 O   0  0  0  0  0  0  0  0  0  0  0  0
   -4.1780    4.1911   -2.5452 O   0  0  0  0  0  0  0  0  0  0  0  0
    8.7335    1.2400    1.6148 H   0  0  0  0  0  0  0  0  0  0  0  0
    2.8795    6.3123   -3.0129 H   0  0  0  0  0  0  0  0  0  0  0  0
    7.3722    3.3120    1.7064 H   0  0  0  0  0  0  0  0  0  0  0  0
    7.9118   -0.7290    0.3478 H   0  0  0  0  0  0  0  0  0  0  0  0
    4.2499    4.6958   -4.3029 H   0  0  0  0  0  0  0  0  0  0  0  0
    2.0215    5.6966   -0.7674 H   0  0  0  0  0  0  0  0  0  0  0  0
    5.1958    3.4199    0.5376 H   0  0  0  0  0  0  0  0  0  0  0  0
    5.7370   -0.6312   -0.8243 H   0  0  0  0  0  0  0  0  0  0  0  0
    4.7627    2.4699   -3.3559 H   0  0  0  0  0  0  0  0  0  0  0  0
    2.5288    3.4734    0.1883 H   0  0  0  0  0  0  0  0  0  0  0  0
   -2.2743    2.3771    1.9931 H   0  0  0  0  0  0  0  0  0  0  0  0
   -4.5347    3.3602    1.9490 H   0  0  0  0  0  0  0  0  0  0  0  0
   -0.1735   -1.6459   -1.5129 H   0  0  0  0  0  0  0  0  0  0  0  0
   -1.2652   -2.4140   -0.3629 H   0  0  0  0  0  0  0  0  0  0  0  0
    0.0687   -1.7554    1.5138 H   0  0  0  0  0  0  0  0  0  0  0  0
    1.3217   -2.0917    0.3048 H   0  0  0  0  0  0  0  0  0  0  0  0
   -1.5531    0.2070   -1.4190 H   0  0  0  0  0  0  0  0  0  0  0  0
   -2.3477   -0.3462    0.0938 H   0  0  0  0  0  0  0  0  0  0  0  0
   -5.4758    6.1092   -1.1975 H   0  0  0  0  0  0  0  0  0  0  0  0
   -7.0785    5.3522   -1.2956 H   0  0  0  0  0  0  0  0  0  0  0  0
   -6.0887    3.4190   -2.5934 H   0  0  0  0  0  0  0  0  0  0  0  0
   -5.8557    4.9696   -3.4259 H   0  0  0  0  0  0  0  0  0  0  0  0
    1.2294    0.3476    1.5345 H   0  0  0  0  0  0  0  0  0  0  0  0
   -0.0480    2.1360   -1.0298 H   0  0  0  0  0  0  0  0  0  0  0  0
    0.1043    2.6650    0.6516 H   0  0  0  0  0  0  0  0  0  0  0  0
    3.9889    0.7330   -1.7571 H   0  0  0  0  0  0  0  0  0  0  0  0
    3.0276    1.1912    0.9368 H   0  0  0  0  0  0  0  0  0  0  0  0
   -0.9512    0.6913    1.3407 H   0  0  0  0  0  0  0  0  0  0  0  0
  1  3  2  0  0  0  0
  1  4  1  0  0  0  0
  2  5  2  0  0  0  0
  2  6  1  0  0  0  0
  3  7  1  0  0  0  0
  4  8  2  0  0  0  0
  5  9  1  0  0  0  0
  6 10  2  0  0  0  0
  7 14  2  0  0  0  0
  8 14  1  0  0  0  0
  9 15  2  0  0  0  0
 10 15  1  0  0  0  0
 11 12  1  0  0  0  0
 11 16  2  0  0  0  0
 12 17  2  0  0  0  0
 13 16  1  0  0  0  0
 13 18  2  0  0  0  0
 13 19  1  0  0  0  0
 14 28  1  0  0  0  0
 15 28  1  0  0  0  0
 16 27  1  0  0  0  0
 17 18  1  0  0  0  0
 17 34  1  0  0  0  0
 18 35  1  0  0  0  0
 19 31  1  0  0  0  0
 19 32  2  0  0  0  0
 20 26  1  0  0  0  0
 20 29  1  0  0  0  0
 20 33  2  0  0  0  0
 21 22  1  0  0  0  0
 21 23  1  0  0  0  0
 22 26  1  0  0  0  0
 23 30  1  0  0  0  0
 24 25  1  0  0  0  0
 24 34  1  0  0  0  0
 25 35  1  0  0  0  0
 26 30  1  0  0  0  0
 27 30  1  0  0  0  0
 28 29  1  0  0  0  0
  1 36  1  0  0  0  0
  2 37  1  0  0  0  0
  3 38  1  0  0  0  0
  4 39  1  0  0  0  0
  5 40  1  0  0  0  0
  6 41  1  0  0  0  0
  7 42  1  0  0  0  0
  8 43  1  0  0  0  0
  9 44  1  0  0  0  0
 10 45  1  0  0  0  0
 11 46  1  0  0  0  0
 12 47  1  0  0  0  0
 21 48  1  0  0  0  0
 21 49  1  0  0  0  0
 22 50  1  0  0  0  0
 22 51  1  0  0  0  0
 23 52  1  0  0  0  0
 23 53  1  0  0  0  0
 24 54  1  0  0  0  0
 24 55  1  0  0  0  0
 25 56  1  0  0  0  0
 25 57  1  0  0  0  0
 26 58  1  0  0  0  0
 27 59  1  0  0  0  0
 27 60  1  0  0  0  0
 28 61  1  0  0  0  0
 29 62  1  0  0  0  0
 30 63  1  0  0  0  0
M  CHG  2  30   1  31  -1
M  END
$$$$
