@<TRIPOS>MOLECULE
AVX62730_0
   32    34     0     0     0
SMALL
NO_CHARGES

@<TRIPOS>ATOM
      1 C1          0.2979   -1.1769    1.7792 C.ar      1 MOL         0.0000
      2 C2          0.5196   -2.4525    2.2989 C.ar      1 MOL         0.0000
      3 C3          0.7855    5.0922   -1.0176 C.2       1 MOL         0.0000
      4 C4          0.1764   -0.9939    0.4014 C.ar      1 MOL         0.0000
      5 C5          0.2866   -2.0843   -0.4619 C.ar      1 MOL         0.0000
      6 C6          0.6167   -3.5455    1.4372 C.ar      1 MOL         0.0000
      7 C7          0.5219   -3.3582    0.0560 C.ar      1 MOL         0.0000
      8 C8         -0.3665    4.4830   -1.4691 C.2       1 MOL         0.0000
      9 C9          0.5469    2.7593   -0.4668 C.2       1 MOL         0.0000
     10 C10        -0.0621    0.3545   -0.0992 C.2       1 MOL         0.0000
     11 C11         0.7794    1.4014    0.0561 C.2       1 MOL         0.0000
     12 C12         0.1665   -1.8964   -1.9243 C.2       1 MOL         0.0000
     13 C13        -1.4328    5.2355   -2.2721 C.2       1 MOL         0.0000
     14 C14         0.5543   -5.8390    1.0877 C.3       1 MOL         0.0000
     15 C15         1.2151   -5.5522   -0.2464 C.3       1 MOL         0.0000
     16 N1         -0.5049    3.1452   -1.1546 N.2       1 MOL         0.0000
     17 O1         -0.9974   -1.9869   -2.4598 O.co2     1 MOL         0.0000
     18 O2         -2.4402    4.5675   -2.6277 O.co2     1 MOL         0.0000
     19 O3          1.2309   -1.6507   -2.5996 O.co2     1 MOL         0.0000
     20 O4         -1.2038    6.4527   -2.5029 O.co2     1 MOL         0.0000
     21 O5          0.8145   -4.7756    2.0082 O.3       1 MOL         0.0000
     22 O6          0.6415   -4.3858   -0.8429 O.3       1 MOL         0.0000
     23 S1          1.7407    3.9538   -0.1616 S.3       1 MOL         0.0000
     24 H1          0.2185   -0.3357    2.4640 H         1 MOL         0.0000
     25 H2          0.6054   -2.5871    3.3737 H         1 MOL         0.0000
     26 H3          1.1049    6.1170   -1.1424 H         1 MOL         0.0000
     27 H4         -0.9868    0.4950   -0.6668 H         1 MOL         0.0000
     28 H5          1.7249    1.2635    0.5750 H         1 MOL         0.0000
     29 H6         -0.5320   -5.9552    0.9851 H         1 MOL         0.0000
     30 H7          0.9569   -6.7600    1.5207 H         1 MOL         0.0000
     31 H8          2.2953   -5.3932   -0.1370 H         1 MOL         0.0000
     32 H9          1.0609   -6.3887   -0.9350 H         1 MOL         0.0000
@<TRIPOS>BOND
     1    1    2 ar
     2    1    4 ar
     3    2    6 ar
     4    3    8 2
     5    3   23 1
     6    4    5 ar
     7    4   10 1
     8    5    7 ar
     9    5   12 1
    10    6    7 ar
    11    6   21 1
    12    7   22 1
    13    8   13 1
    14    8   16 1
    15    9   11 1
    16    9   16 2
    17    9   23 1
    18   10   11 2
    19   12   17 1
    20   12   19 2
    21   13   18 1
    22   13   20 2
    23   14   15 1
    24   14   21 1
    25   15   22 1
    26    1   24 1
    27    2   25 1
    28    3   26 1
    29   10   27 1
    30   11   28 1
    31   14   29 1
    32   14   30 1
    33   15   31 1
    34   15   32 1
