@<TRIPOS>MOLECULE
AVX62778_0
   49    52     0     0     0
SMALL
NO_CHARGES

@<TRIPOS>ATOM
      1 C1          1.4794   -4.1242    2.5910 C.ar      1 MOL         0.0000
      2 C2          2.1650   -2.9146    2.4794 C.ar      1 MOL         0.0000
      3 C3          0.4811   -4.4474    1.6719 C.ar      1 MOL         0.0000
      4 C4          1.8524   -2.0283    1.4488 C.ar      1 MOL         0.0000
      5 C5          0.1685   -3.5610    0.6413 C.ar      1 MOL         0.0000
      6 C6         -1.0935   -0.1030    1.8271 C.ar      1 MOL         0.0000
      7 C7         -1.3530    0.4583    3.0797 C.ar      1 MOL         0.0000
      8 C8          6.1396   -1.4344   -1.3678 C.2       1 MOL         0.0000
      9 C9          5.9834   -3.0339    0.1545 C.cat     1 MOL         0.0000
     10 C10         0.8542   -2.3514    0.5297 C.ar      1 MOL         0.0000
     11 C11        -0.1481    0.4787    0.9641 C.ar      1 MOL         0.0000
     12 C12         0.5485    1.6286    1.3437 C.ar      1 MOL         0.0000
     13 C13        -0.6516    1.5936    3.4303 C.ar      1 MOL         0.0000
     14 C14         0.2737    2.1630    2.5857 C.ar      1 MOL         0.0000
     15 C15         5.1697   -2.3078   -1.7719 C.2       1 MOL         0.0000
     16 C16         0.0823   -0.1497   -0.3310 C.2       1 MOL         0.0000
     17 C17         0.5220   -1.4112   -0.5642 C.2       1 MOL         0.0000
     18 C18         1.5481    2.2630    0.4664 C.2       1 MOL         0.0000
     19 C19         2.9771   -1.5768   -2.7896 C.2       1 MOL         0.0000
     20 C20         0.1843    3.3377    4.4006 C.3       1 MOL         0.0000
     21 C21         4.2846   -2.3187   -2.9900 C.3       1 MOL         0.0000
     22 C22         0.6598   -1.9438   -1.9738 C.3       1 MOL         0.0000
     23 N1          6.6256   -1.9079   -0.1730 N.pl3     1 MOL         0.0000
     24 N2          5.0945   -3.2875   -0.8114 N.pl3     1 MOL         0.0000
     25 N3          2.0128   -2.4119   -2.2673 N.am      1 MOL         0.0000
     26 O1          2.7761    1.8882    0.5565 O.co2     1 MOL         0.0000
     27 O2          1.1587    3.1702   -0.3594 O.co2     1 MOL         0.0000
     28 O3          2.8234   -0.3886   -3.0604 O.2       1 MOL         0.0000
     29 O4         -0.7698    2.2750    4.6024 O.3       1 MOL         0.0000
     30 O5          0.8505    3.2723    3.1230 O.3       1 MOL         0.0000
     31 H1          1.7236   -4.8149    3.3927 H         1 MOL         0.0000
     32 H2          2.9432   -2.6632    3.1943 H         1 MOL         0.0000
     33 H3         -0.0520   -5.3897    1.7580 H         1 MOL         0.0000
     34 H4          2.3957   -1.0891    1.3749 H         1 MOL         0.0000
     35 H5         -0.6121   -3.8273   -0.0674 H         1 MOL         0.0000
     36 H6         -1.6352   -0.9991    1.5315 H         1 MOL         0.0000
     37 H7         -2.0816    0.0125    3.7475 H         1 MOL         0.0000
     38 H8          6.5676   -0.5298   -1.7516 H         1 MOL         0.0000
     39 H9          6.1511   -3.6286    1.0369 H         1 MOL         0.0000
     40 H10        -0.1273    0.4943   -1.1892 H         1 MOL         0.0000
     41 H11        -0.3388    4.2980    4.4755 H         1 MOL         0.0000
     42 H12         0.9396    3.2853    5.1931 H         1 MOL         0.0000
     43 H13         4.8194   -1.8704   -3.8370 H         1 MOL         0.0000
     44 H14         4.0597   -3.3542   -3.2755 H         1 MOL         0.0000
     45 H15         0.3928   -1.1770   -2.7109 H         1 MOL         0.0000
     46 H16        -0.0433   -2.7702   -2.1284 H         1 MOL         0.0000
     47 H17         7.3589   -1.4716    0.3788 H         1 MOL         0.0000
     48 H18         4.4622   -4.0829   -0.8274 H         1 MOL         0.0000
     49 H19         2.2479   -3.3743   -2.0823 H         1 MOL         0.0000
@<TRIPOS>BOND
     1    1    2 ar
     2    1    3 ar
     3    2    4 ar
     4    3    5 ar
     5    4   10 ar
     6    5   10 ar
     7    6    7 ar
     8    6   11 ar
     9    7   13 ar
    10    8   15 2
    11    8   23 1
    12    9   23 1
    13    9   24 2
    14   10   17 1
    15   11   12 ar
    16   11   16 1
    17   12   14 ar
    18   12   18 1
    19   13   14 ar
    20   13   29 1
    21   14   30 1
    22   15   21 1
    23   15   24 1
    24   16   17 2
    25   17   22 1
    26   18   26 1
    27   18   27 2
    28   19   21 1
    29   19   25 am
    30   19   28 2
    31   20   29 1
    32   20   30 1
    33   22   25 1
    34    1   31 1
    35    2   32 1
    36    3   33 1
    37    4   34 1
    38    5   35 1
    39    6   36 1
    40    7   37 1
    41    8   38 1
    42    9   39 1
    43   16   40 1
    44   20   41 1
    45   20   42 1
    46   21   43 1
    47   21   44 1
    48   22   45 1
    49   22   46 1
    50   23   47 1
    51   24   48 1
    52   25   49 1
