@<TRIPOS>MOLECULE
AVX62525_1
   31    33     0     0     0
SMALL
NO_CHARGES

@<TRIPOS>ATOM
      1 C1          7.3851   -3.4988   -1.1144 C.ar      1 MOL         0.0000
      2 C2          6.8144   -4.7426   -0.7870 C.ar      1 MOL         0.0000
      3 C3          6.7476   -2.3031   -0.7680 C.ar      1 MOL         0.0000
      4 C4          5.5972   -4.8124   -0.1073 C.ar      1 MOL         0.0000
      5 C5          5.5402   -2.3793   -0.0986 C.ar      1 MOL         0.0000
      6 C6          4.9889   -3.6179    0.2224 C.ar      1 MOL         0.0000
      7 C7          3.4825   -2.0794    1.0375 C.2       1 MOL         0.0000
      8 C8          3.2872    3.2394   -0.5305 C.3       1 MOL         0.0000
      9 C9          3.0900    1.8969   -1.1886 C.3       1 MOL         0.0000
     10 C10         4.6137    3.0505    0.1746 C.3       1 MOL         0.0000
     11 C11         4.6436   -1.2855    0.4074 C.3       1 MOL         0.0000
     12 C12         3.6352    0.9568   -0.1273 C.3       1 MOL         0.0000
     13 C13         4.1395   -0.3595   -0.6862 C.3       1 MOL         0.0000
     14 N1          3.7827   -3.4379    0.8896 N.am      1 MOL         0.0000
     15 O1          2.4925   -1.5952    1.5647 O.2       1 MOL         0.0000
     16 O2          4.7126    1.6594    0.5148 O.3       1 MOL         0.0000
     17 H1          8.3346   -3.4696   -1.6425 H         1 MOL         0.0000
     18 H2          7.3297   -5.6575   -1.0667 H         1 MOL         0.0000
     19 H3          7.1946   -1.3475   -1.0187 H         1 MOL         0.0000
     20 H4          5.1551   -5.7688    0.1468 H         1 MOL         0.0000
     21 H5          3.2921    4.0776   -1.2321 H         1 MOL         0.0000
     22 H6          2.4933    3.4132    0.2056 H         1 MOL         0.0000
     23 H7          2.0481    1.6884   -1.4468 H         1 MOL         0.0000
     24 H8          3.6889    1.8457   -2.1060 H         1 MOL         0.0000
     25 H9          5.4520    3.2912   -0.4878 H         1 MOL         0.0000
     26 H10         4.6983    3.6584    1.0797 H         1 MOL         0.0000
     27 H11         5.1485   -0.7282    1.2042 H         1 MOL         0.0000
     28 H12         2.8747    0.7582    0.6350 H         1 MOL         0.0000
     29 H13         4.9476   -0.1629   -1.3998 H         1 MOL         0.0000
     30 H14         3.3302   -0.8515   -1.2373 H         1 MOL         0.0000
     31 H15         3.2008   -4.2013    1.2139 H         1 MOL         0.0000
@<TRIPOS>BOND
     1    1    2 ar
     2    1    3 ar
     3    2    4 ar
     4    3    5 ar
     5    4    6 ar
     6    5    6 ar
     7    5   11 1
     8    6   14 1
     9    7   11 1
    10    7   14 am
    11    7   15 2
    12    8    9 1
    13    8   10 1
    14    9   12 1
    15   10   16 1
    16   11   13 1
    17   12   13 1
    18   12   16 1
    19    1   17 1
    20    2   18 1
    21    3   19 1
    22    4   20 1
    23    8   21 1
    24    8   22 1
    25    9   23 1
    26    9   24 1
    27   10   25 1
    28   10   26 1
    29   11   27 1
    30   12   28 1
    31   13   29 1
    32   13   30 1
    33   14   31 1
