@<TRIPOS>MOLECULE
AVX62525_3
   31    33     0     0     0
SMALL
NO_CHARGES

@<TRIPOS>ATOM
      1 C1         -0.9642   -8.0720    2.5677 C.ar      1 MOL         0.0000
      2 C2         -2.3662   -8.0765    2.4477 C.ar      1 MOL         0.0000
      3 C3         -0.2451   -6.8728    2.5374 C.ar      1 MOL         0.0000
      4 C4         -3.0731   -6.8826    2.2962 C.ar      1 MOL         0.0000
      5 C5         -0.9511   -5.6942    2.3828 C.ar      1 MOL         0.0000
      6 C6         -2.3395   -5.7135    2.2691 C.ar      1 MOL         0.0000
      7 C7         -1.7738   -3.4859    2.1353 C.2       1 MOL         0.0000
      8 C8          3.2750   -1.8212    2.3032 C.3       1 MOL         0.0000
      9 C9          2.1808   -2.7958    2.6597 C.3       1 MOL         0.0000
     10 C10         3.4753   -2.1013    0.8290 C.3       1 MOL         0.0000
     11 C11        -0.4637   -4.2744    2.3284 C.3       1 MOL         0.0000
     12 C12         1.3133   -2.7457    1.4139 C.3       1 MOL         0.0000
     13 C13         0.5047   -4.0085    1.1886 C.3       1 MOL         0.0000
     14 N1         -2.8185   -4.4165    2.1252 N.am      1 MOL         0.0000
     15 O1         -1.8641   -2.2733    2.0161 O.2       1 MOL         0.0000
     16 O2          2.2099   -2.5367    0.3098 O.3       1 MOL         0.0000
     17 H1         -0.4356   -9.0142    2.6865 H         1 MOL         0.0000
     18 H2         -2.9021   -9.0216    2.4749 H         1 MOL         0.0000
     19 H3          0.8349   -6.8752    2.6351 H         1 MOL         0.0000
     20 H4         -4.1531   -6.8824    2.2040 H         1 MOL         0.0000
     21 H5          2.9188   -0.7939    2.4441 H         1 MOL         0.0000
     22 H6          4.1881   -1.9497    2.8902 H         1 MOL         0.0000
     23 H7          2.6102   -3.7950    2.8012 H         1 MOL         0.0000
     24 H8          1.6363   -2.5244    3.5683 H         1 MOL         0.0000
     25 H9          3.8173   -1.2213    0.2771 H         1 MOL         0.0000
     26 H10         4.1949   -2.9123    0.6742 H         1 MOL         0.0000
     27 H11        -0.0334   -3.9905    3.2952 H         1 MOL         0.0000
     28 H12         0.6370   -1.8854    1.4528 H         1 MOL         0.0000
     29 H13         1.1865   -4.8598    1.0822 H         1 MOL         0.0000
     30 H14        -0.0525   -3.9176    0.2494 H         1 MOL         0.0000
     31 H15        -3.7999   -4.1888    2.0185 H         1 MOL         0.0000
@<TRIPOS>BOND
     1    1    2 ar
     2    1    3 ar
     3    2    4 ar
     4    3    5 ar
     5    4    6 ar
     6    5    6 ar
     7    5   11 1
     8    6   14 1
     9    7   11 1
    10    7   14 am
    11    7   15 2
    12    8    9 1
    13    8   10 1
    14    9   12 1
    15   10   16 1
    16   11   13 1
    17   12   13 1
    18   12   16 1
    19    1   17 1
    20    2   18 1
    21    3   19 1
    22    4   20 1
    23    8   21 1
    24    8   22 1
    25    9   23 1
    26    9   24 1
    27   10   25 1
    28   10   26 1
    29   11   27 1
    30   12   28 1
    31   13   29 1
    32   13   30 1
    33   14   31 1
