@<TRIPOS>MOLECULE
GL5243106_1
   54    56     0     0     0
SMALL
NO_CHARGES

@<TRIPOS>ATOM
      1 C1         -1.8966   -4.7968   -3.6891 C.ar      1 MOL         0.0000
      2 C2         -3.2163   -4.9056   -1.6683 C.ar      1 MOL         0.0000
      3 C3         -2.5816    2.6097   -1.4340 C.ar      1 MOL         0.0000
      4 C4         -2.7672   -5.6951   -4.3060 C.ar      1 MOL         0.0000
      5 C5         -4.0869   -5.8040   -2.2853 C.ar      1 MOL         0.0000
      6 C6         -2.8069    3.5984   -2.3948 C.ar      1 MOL         0.0000
      7 C7         -2.1211   -4.4021   -2.3702 C.ar      1 MOL         0.0000
      8 C8         -3.1356    0.8641   -3.0384 C.ar      1 MOL         0.0000
      9 C9         -2.7449    1.2504   -1.7539 C.ar      1 MOL         0.0000
     10 C10        -3.8623   -6.1987   -3.6041 C.ar      1 MOL         0.0000
     11 C11        -3.1918    3.1904   -3.6554 C.ar      1 MOL         0.0000
     12 C12        -3.3516    1.8599   -3.9686 C.ar      1 MOL         0.0000
     13 C13        -1.1938   -3.4453   -1.7131 C.2       1 MOL         0.0000
     14 C14        -3.3125   -0.5518   -3.3987 C.2       1 MOL         0.0000
     15 C15        -3.7966    3.0391   -5.7274 C.3       1 MOL         0.0000
     16 C16         2.0052    0.2419   -1.2482 C.3       1 MOL         0.0000
     17 C17         2.1417    1.4838    0.9196 C.3       1 MOL         0.0000
     18 C18        -2.4894    0.2190   -0.6808 C.3       1 MOL         0.0000
     19 C19        -0.1114    0.7480    0.0855 C.3       1 MOL         0.0000
     20 C20        -0.9724   -1.6815    0.0179 C.3       1 MOL         0.0000
     21 C21         1.3900    0.3982    0.1429 C.3       1 MOL         0.0000
     22 C22        -1.0240   -0.2830   -0.6244 C.3       1 MOL         0.0000
     23 N1         -4.7426   -7.1070   -4.2280 N.pl3     1 MOL         0.0000
     24 N2         -1.7358   -2.6685   -0.6957 N.am      1 MOL         0.0000
     25 O1         -2.3037   -1.2039   -3.8635 O.co2     1 MOL         0.0000
     26 O2         -0.0312   -3.3731   -2.1024 O.2       1 MOL         0.0000
     27 O3         -4.4703   -1.0925   -3.2378 O.co2     1 MOL         0.0000
     28 O4         -3.4533    4.0055   -4.7133 O.3       1 MOL         0.0000
     29 O5         -3.7335    1.6754   -5.2617 O.3       1 MOL         0.0000
     30 H1         -1.0463   -4.4106   -4.2454 H         1 MOL         0.0000
     31 H2         -3.4007   -4.6048   -0.6402 H         1 MOL         0.0000
     32 H3         -2.2769    2.9020   -0.4319 H         1 MOL         0.0000
     33 H4         -2.5828   -5.9961   -5.3342 H         1 MOL         0.0000
     34 H5         -4.9373   -6.1903   -1.7291 H         1 MOL         0.0000
     35 H6         -2.6820    4.6476   -2.1523 H         1 MOL         0.0000
     36 H7         -4.8152    3.2437   -6.0766 H         1 MOL         0.0000
     37 H8         -3.1055    3.1543   -6.5703 H         1 MOL         0.0000
     38 H9          1.8955    1.1593   -1.8362 H         1 MOL         0.0000
     39 H10         3.0740    0.0127   -1.1766 H         1 MOL         0.0000
     40 H11         1.5363   -0.5765   -1.8023 H         1 MOL         0.0000
     41 H12         2.0457    2.4550    0.4225 H         1 MOL         0.0000
     42 H13         3.2090    1.2475    0.9842 H         1 MOL         0.0000
     43 H14         1.7539    1.5853    1.9390 H         1 MOL         0.0000
     44 H15        -3.1648   -0.6261   -0.8709 H         1 MOL         0.0000
     45 H16        -2.7875    0.6205    0.2964 H         1 MOL         0.0000
     46 H17        -0.4758    0.9016    1.1099 H         1 MOL         0.0000
     47 H18        -0.2136    1.7178   -0.4181 H         1 MOL         0.0000
     48 H19         0.0606   -2.0437    0.0615 H         1 MOL         0.0000
     49 H20        -1.3455   -1.6603    1.0460 H         1 MOL         0.0000
     50 H21         1.5250   -0.5421    0.6895 H         1 MOL         0.0000
     51 H22        -0.6696   -0.3978   -1.6566 H         1 MOL         0.0000
     52 H23        -4.5977   -7.3457   -5.1882 H         1 MOL         0.0000
     53 H24        -5.5498   -7.4240   -3.7300 H         1 MOL         0.0000
     54 H25        -2.7270   -2.7450   -0.4749 H         1 MOL         0.0000
@<TRIPOS>BOND
     1    1    4 ar
     2    1    7 ar
     3    2    5 ar
     4    2    7 ar
     5    3    6 ar
     6    3    9 ar
     7    4   10 ar
     8    5   10 ar
     9    6   11 ar
    10    7   13 1
    11    8    9 ar
    12    8   12 ar
    13    8   14 1
    14    9   18 1
    15   10   23 1
    16   11   12 ar
    17   11   28 1
    18   12   29 1
    19   13   24 am
    20   13   26 2
    21   14   25 1
    22   14   27 2
    23   15   28 1
    24   15   29 1
    25   16   21 1
    26   17   21 1
    27   18   22 1
    28   19   21 1
    29   19   22 1
    30   20   22 1
    31   20   24 1
    32    1   30 1
    33    2   31 1
    34    3   32 1
    35    4   33 1
    36    5   34 1
    37    6   35 1
    38   15   36 1
    39   15   37 1
    40   16   38 1
    41   16   39 1
    42   16   40 1
    43   17   41 1
    44   17   42 1
    45   17   43 1
    46   18   44 1
    47   18   45 1
    48   19   46 1
    49   19   47 1
    50   20   48 1
    51   20   49 1
    52   21   50 1
    53   22   51 1
    54   23   52 1
    55   23   53 1
    56   24   54 1
