GL5243104_1
  -OEChem-04011315043D

 51 53  0     1  0  0  0  0  0999 V2000
   -2.5816    2.6097   -1.4340 C   0  0  0  0  0  0  0  0  0  0  0  0
   -2.8069    3.5984   -2.3948 C   0  0  0  0  0  0  0  0  0  0  0  0
   -1.9000   -4.7971   -3.6849 C   0  0  0  0  0  0  0  0  0  0  0  0
   -3.2137   -4.9058   -1.6732 C   0  0  0  0  0  0  0  0  0  0  0  0
   -2.7937   -5.6909   -4.2525 C   0  0  0  0  0  0  0  0  0  0  0  0
   -4.0487   -5.7946   -2.3309 C   0  0  0  0  0  0  0  0  0  0  0  0
   -2.1211   -4.4021   -2.3702 C   0  0  0  0  0  0  0  0  0  0  0  0
   -3.1356    0.8641   -3.0384 C   0  0  0  0  0  0  0  0  0  0  0  0
   -2.7449    1.2504   -1.7539 C   0  0  0  0  0  0  0  0  0  0  0  0
   -3.1918    3.1904   -3.6554 C   0  0  0  0  0  0  0  0  0  0  0  0
   -3.3516    1.8599   -3.9686 C   0  0  0  0  0  0  0  0  0  0  0  0
   -1.1938   -3.4453   -1.7131 C   0  0  0  0  0  0  0  0  0  0  0  0
   -3.3125   -0.5518   -3.3987 C   0  0  0  0  0  0  0  0  0  0  0  0
   -3.7966    3.0391   -5.7274 C   0  0  0  0  0  0  0  0  0  0  0  0
    2.0052    0.2419   -1.2482 C   0  0  0  0  0  0  0  0  0  0  0  0
    2.1417    1.4838    0.9196 C   0  0  0  0  0  0  0  0  0  0  0  0
   -2.4894    0.2190   -0.6808 C   0  0  0  0  0  0  0  0  0  0  0  0
   -0.1114    0.7480    0.0855 C   0  0  0  0  0  0  0  0  0  0  0  0
   -0.9724   -1.6815    0.0179 C   0  0  0  0  0  0  0  0  0  0  0  0
    1.3900    0.3982    0.1429 C   0  0  0  0  0  0  0  0  0  0  0  0
   -1.0240   -0.2830   -0.6244 C   0  0  1  0  0  0  0  0  0  0  0  0
   -3.8662   -6.2017   -3.6071 N   0  0  0  0  0  0  0  0  0  0  0  0
   -1.7358   -2.6685   -0.6957 N   0  0  0  0  0  0  0  0  0  0  0  0
   -2.3037   -1.2039   -3.8635 O   0  5  0  0  0  0  0  0  0  0  0  0
   -0.0312   -3.3731   -2.1024 O   0  0  0  0  0  0  0  0  0  0  0  0
   -4.4703   -1.0925   -3.2378 O   0  0  0  0  0  0  0  0  0  0  0  0
   -3.4533    4.0055   -4.7133 O   0  0  0  0  0  0  0  0  0  0  0  0
   -3.7335    1.6754   -5.2617 O   0  0  0  0  0  0  0  0  0  0  0  0
   -2.2769    2.9020   -0.4319 H   0  0  0  0  0  0  0  0  0  0  0  0
   -2.6820    4.6476   -2.1523 H   0  0  0  0  0  0  0  0  0  0  0  0
   -1.0583   -4.4225   -4.2578 H   0  0  0  0  0  0  0  0  0  0  0  0
   -3.4151   -4.6177   -0.6468 H   0  0  0  0  0  0  0  0  0  0  0  0
   -2.6664   -6.0295   -5.2752 H   0  0  0  0  0  0  0  0  0  0  0  0
   -4.9143   -6.2165   -1.8313 H   0  0  0  0  0  0  0  0  0  0  0  0
   -4.8152    3.2437   -6.0766 H   0  0  0  0  0  0  0  0  0  0  0  0
   -3.1055    3.1543   -6.5703 H   0  0  0  0  0  0  0  0  0  0  0  0
    1.8955    1.1593   -1.8362 H   0  0  0  0  0  0  0  0  0  0  0  0
    3.0740    0.0127   -1.1766 H   0  0  0  0  0  0  0  0  0  0  0  0
    1.5363   -0.5765   -1.8023 H   0  0  0  0  0  0  0  0  0  0  0  0
    2.0457    2.4550    0.4225 H   0  0  0  0  0  0  0  0  0  0  0  0
    3.2090    1.2475    0.9842 H   0  0  0  0  0  0  0  0  0  0  0  0
    1.7539    1.5853    1.9390 H   0  0  0  0  0  0  0  0  0  0  0  0
   -3.1648   -0.6261   -0.8709 H   0  0  0  0  0  0  0  0  0  0  0  0
   -2.7875    0.6205    0.2964 H   0  0  0  0  0  0  0  0  0  0  0  0
   -0.4758    0.9016    1.1099 H   0  0  0  0  0  0  0  0  0  0  0  0
   -0.2136    1.7178   -0.4181 H   0  0  0  0  0  0  0  0  0  0  0  0
    0.0606   -2.0437    0.0615 H   0  0  0  0  0  0  0  0  0  0  0  0
   -1.3455   -1.6603    1.0460 H   0  0  0  0  0  0  0  0  0  0  0  0
    1.5250   -0.5421    0.6895 H   0  0  0  0  0  0  0  0  0  0  0  0
   -0.6696   -0.3978   -1.6566 H   0  0  0  0  0  0  0  0  0  0  0  0
   -2.7270   -2.7450   -0.4749 H   0  0  0  0  0  0  0  0  0  0  0  0
  1  2  2  0  0  0  0
  1  9  1  0  0  0  0
  2 10  1  0  0  0  0
  3  5  2  0  0  0  0
  3  7  1  0  0  0  0
  4  6  1  0  0  0  0
  4  7  2  0  0  0  0
  5 22  1  0  0  0  0
  6 22  2  0  0  0  0
  7 12  1  0  0  0  0
  8  9  2  0  0  0  0
  8 11  1  0  0  0  0
  8 13  1  0  0  0  0
  9 17  1  0  0  0  0
 10 11  2  0  0  0  0
 10 27  1  0  0  0  0
 11 28  1  0  0  0  0
 12 23  1  0  0  0  0
 12 25  2  0  0  0  0
 13 24  1  0  0  0  0
 13 26  2  0  0  0  0
 14 27  1  0  0  0  0
 14 28  1  0  0  0  0
 15 20  1  0  0  0  0
 16 20  1  0  0  0  0
 17 21  1  0  0  0  0
 18 20  1  0  0  0  0
 18 21  1  0  0  0  0
 19 21  1  0  0  0  0
 19 23  1  0  0  0  0
  1 29  1  0  0  0  0
  2 30  1  0  0  0  0
  3 31  1  0  0  0  0
  4 32  1  0  0  0  0
  5 33  1  0  0  0  0
  6 34  1  0  0  0  0
 14 35  1  0  0  0  0
 14 36  1  0  0  0  0
 15 37  1  0  0  0  0
 15 38  1  0  0  0  0
 15 39  1  0  0  0  0
 16 40  1  0  0  0  0
 16 41  1  0  0  0  0
 16 42  1  0  0  0  0
 17 43  1  0  0  0  0
 17 44  1  0  0  0  0
 18 45  1  0  0  0  0
 18 46  1  0  0  0  0
 19 47  1  0  0  0  0
 19 48  1  0  0  0  0
 20 49  1  0  0  0  0
 21 50  1  0  0  0  0
 23 51  1  0  0  0  0
M  CHG  1  24  -1
M  END
$$$$
