GL5243102_0
  -OEChem-04011315043D

 52 54  0     1  0  0  0  0  0999 V2000
   -2.2653    1.6460   -2.7314 C   0  0  0  0  0  0  0  0  0  0  0  0
   -2.4033    2.8517   -3.4232 C   0  0  0  0  0  0  0  0  0  0  0  0
    5.4195    1.5668   -1.6151 C   0  0  0  0  0  0  0  0  0  0  0  0
    5.8112    0.1651   -3.2698 C   0  0  0  0  0  0  0  0  0  0  0  0
   -3.1942    2.6467   -0.7155 C   0  0  0  0  0  0  0  0  0  0  0  0
   -2.6585    1.5440   -1.3854 C   0  0  0  0  0  0  0  0  0  0  0  0
   -2.9350    3.9254   -2.7388 C   0  0  0  0  0  0  0  0  0  0  0  0
   -3.3199    3.8256   -1.4213 C   0  0  0  0  0  0  0  0  0  0  0  0
    4.6094    0.4585   -1.5378 C   0  0  0  0  0  0  0  0  0  0  0  0
   -3.6142    2.5657    0.6927 C   0  0  0  0  0  0  0  0  0  0  0  0
    2.1831    0.6596   -0.8672 C   0  0  0  0  0  0  0  0  0  0  0  0
   -3.7025    5.8446   -2.0989 C   0  0  0  0  0  0  0  0  0  0  0  0
   -1.1429   -3.0784   -2.0429 C   0  0  0  0  0  0  0  0  0  0  0  0
   -1.5340   -4.1008    0.2070 C   0  0  0  0  0  0  0  0  0  0  0  0
   -2.4894    0.2190   -0.6808 C   0  0  0  0  0  0  0  0  0  0  0  0
    3.5612    0.1405   -0.5046 C   0  0  0  0  0  0  0  0  0  0  0  0
   -0.9360   -1.6641    0.0717 C   0  0  0  0  0  0  0  0  0  0  0  0
   -0.1280    0.7815    0.0352 C   0  0  0  0  0  0  0  0  0  0  0  0
   -1.6703   -2.8251   -0.6302 C   0  0  0  0  0  0  0  0  0  0  0  0
   -1.0240   -0.2830   -0.6244 C   0  0  2  0  0  0  0  0  0  0  0  0
    4.8584   -0.4104   -2.5705 N   0  0  0  0  0  0  0  0  0  0  0  0
    6.1840    1.3643   -2.7294 N   0  0  0  0  0  0  0  0  0  0  0  0
    1.2517    0.3901    0.1308 N   0  0  0  0  0  0  0  0  0  0  0  0
   -4.8279    2.2269    0.9590 O   0  5  0  0  0  0  0  0  0  0  0  0
   -2.7544    2.8367    1.6126 O   0  0  0  0  0  0  0  0  0  0  0  0
    1.9347    1.2484   -1.9162 O   0  0  0  0  0  0  0  0  0  0  0  0
   -3.1438    5.1710   -3.2454 O   0  0  0  0  0  0  0  0  0  0  0  0
   -3.8176    4.9964   -0.9380 O   0  0  0  0  0  0  0  0  0  0  0  0
   -1.8496    0.7827   -3.2457 H   0  0  0  0  0  0  0  0  0  0  0  0
   -2.1015    2.9346   -4.4610 H   0  0  0  0  0  0  0  0  0  0  0  0
    5.5212    2.4511   -1.0024 H   0  0  0  0  0  0  0  0  0  0  0  0
    6.2694   -0.2282   -4.1663 H   0  0  0  0  0  0  0  0  0  0  0  0
   -3.0629    6.6984   -1.8475 H   0  0  0  0  0  0  0  0  0  0  0  0
   -4.6994    6.2167   -2.3619 H   0  0  0  0  0  0  0  0  0  0  0  0
   -0.0735   -3.3144   -2.0311 H   0  0  0  0  0  0  0  0  0  0  0  0
   -1.6688   -3.9188   -2.5089 H   0  0  0  0  0  0  0  0  0  0  0  0
   -1.2927   -2.2070   -2.6871 H   0  0  0  0  0  0  0  0  0  0  0  0
   -0.4820   -4.3875    0.3109 H   0  0  0  0  0  0  0  0  0  0  0  0
   -2.0607   -4.9355   -0.2674 H   0  0  0  0  0  0  0  0  0  0  0  0
   -1.9486   -3.9643    1.2116 H   0  0  0  0  0  0  0  0  0  0  0  0
   -3.1137   -0.5148   -1.2083 H   0  0  0  0  0  0  0  0  0  0  0  0
   -2.9042    0.2839    0.3335 H   0  0  0  0  0  0  0  0  0  0  0  0
    3.5035   -0.9461   -0.3619 H   0  0  0  0  0  0  0  0  0  0  0  0
    3.8531    0.5675    0.4632 H   0  0  0  0  0  0  0  0  0  0  0  0
   -1.3214   -1.5728    1.0960 H   0  0  0  0  0  0  0  0  0  0  0  0
    0.1205   -1.9437    0.1722 H   0  0  0  0  0  0  0  0  0  0  0  0
   -0.1586    1.7146   -0.5378 H   0  0  0  0  0  0  0  0  0  0  0  0
   -0.4714    1.0181    1.0466 H   0  0  0  0  0  0  0  0  0  0  0  0
   -2.7397   -2.5943   -0.6954 H   0  0  0  0  0  0  0  0  0  0  0  0
   -0.6696   -0.3978   -1.6566 H   0  0  0  0  0  0  0  0  0  0  0  0
    6.8947    1.9875   -3.0890 H   0  0  0  0  0  0  0  0  0  0  0  0
    1.5611   -0.1062    0.9653 H   0  0  0  0  0  0  0  0  0  0  0  0
  1  2  2  0  0  0  0
  1  6  1  0  0  0  0
  2  7  1  0  0  0  0
  3  9  2  0  0  0  0
  3 22  1  0  0  0  0
  4 21  2  0  0  0  0
  4 22  1  0  0  0  0
  5  6  2  0  0  0  0
  5  8  1  0  0  0  0
  5 10  1  0  0  0  0
  6 15  1  0  0  0  0
  7  8  2  0  0  0  0
  7 27  1  0  0  0  0
  8 28  1  0  0  0  0
  9 16  1  0  0  0  0
  9 21  1  0  0  0  0
 10 24  1  0  0  0  0
 10 25  2  0  0  0  0
 11 16  1  0  0  0  0
 11 23  1  0  0  0  0
 11 26  2  0  0  0  0
 12 27  1  0  0  0  0
 12 28  1  0  0  0  0
 13 19  1  0  0  0  0
 14 19  1  0  0  0  0
 15 20  1  0  0  0  0
 17 19  1  0  0  0  0
 17 20  1  0  0  0  0
 18 20  1  0  0  0  0
 18 23  1  0  0  0  0
  1 29  1  0  0  0  0
  2 30  1  0  0  0  0
  3 31  1  0  0  0  0
  4 32  1  0  0  0  0
 12 33  1  0  0  0  0
 12 34  1  0  0  0  0
 13 35  1  0  0  0  0
 13 36  1  0  0  0  0
 13 37  1  0  0  0  0
 14 38  1  0  0  0  0
 14 39  1  0  0  0  0
 14 40  1  0  0  0  0
 15 41  1  0  0  0  0
 15 42  1  0  0  0  0
 16 43  1  0  0  0  0
 16 44  1  0  0  0  0
 17 45  1  0  0  0  0
 17 46  1  0  0  0  0
 18 47  1  0  0  0  0
 18 48  1  0  0  0  0
 19 49  1  0  0  0  0
 20 50  1  0  0  0  0
 22 51  1  0  0  0  0
 23 52  1  0  0  0  0
M  CHG  1  24  -1
M  END
$$$$
