@<TRIPOS>MOLECULE
GL5243100_1
   53    55     0     0     0
SMALL
NO_CHARGES

@<TRIPOS>ATOM
      1 C1         -2.2653    1.6460   -2.7314 C.ar      1 MOL         0.0000
      2 C2         -2.4033    2.8517   -3.4232 C.ar      1 MOL         0.0000
      3 C3         -4.6651   -0.4817    3.5928 C.2       1 MOL         0.0000
      4 C4         -6.0218   -0.4636    3.8298 C.2       1 MOL         0.0000
      5 C5         -5.4039   -2.6080    3.6444 C.2       1 MOL         0.0000
      6 C6         -3.1942    2.6467   -0.7155 C.ar      1 MOL         0.0000
      7 C7         -2.6585    1.5440   -1.3854 C.ar      1 MOL         0.0000
      8 C8         -4.2741   -1.8383    3.4756 C.2       1 MOL         0.0000
      9 C9         -2.9350    3.9254   -2.7388 C.ar      1 MOL         0.0000
     10 C10        -3.3199    3.8256   -1.4213 C.ar      1 MOL         0.0000
     11 C11        -3.6142    2.5657    0.6927 C.2       1 MOL         0.0000
     12 C12        -2.5624   -2.5013    1.7412 C.2       1 MOL         0.0000
     13 C13        -3.7025    5.8446   -2.0989 C.3       1 MOL         0.0000
     14 C14         2.0052    0.2419   -1.2482 C.3       1 MOL         0.0000
     15 C15         2.1417    1.4838    0.9196 C.3       1 MOL         0.0000
     16 C16        -2.8807   -2.3468    3.2160 C.3       1 MOL         0.0000
     17 C17        -2.4894    0.2190   -0.6808 C.3       1 MOL         0.0000
     18 C18        -0.1114    0.7480    0.0855 C.3       1 MOL         0.0000
     19 C19        -0.9724   -1.6815    0.0179 C.3       1 MOL         0.0000
     20 C20         1.3900    0.3982    0.1429 C.3       1 MOL         0.0000
     21 C21        -1.0240   -0.2830   -0.6244 C.3       1 MOL         0.0000
     22 N1         -6.4603   -1.7618    3.8588 N.pl3     1 MOL         0.0000
     23 N2         -1.4796   -1.7139    1.3623 N.am      1 MOL         0.0000
     24 O1         -4.8279    2.2269    0.9590 O.co2     1 MOL         0.0000
     25 O2         -2.7544    2.8367    1.6126 O.co2     1 MOL         0.0000
     26 O3         -3.1901   -3.2389    0.9858 O.2       1 MOL         0.0000
     27 O4         -3.1438    5.1710   -3.2454 O.3       1 MOL         0.0000
     28 O5         -3.8176    4.9964   -0.9380 O.3       1 MOL         0.0000
     29 H1         -1.8496    0.7827   -3.2457 H         1 MOL         0.0000
     30 H2         -2.1015    2.9346   -4.4610 H         1 MOL         0.0000
     31 H3         -4.0310    0.3906    3.5130 H         1 MOL         0.0000
     32 H4         -6.7131    0.3540    3.9779 H         1 MOL         0.0000
     33 H5         -5.5526   -3.6789    3.6313 H         1 MOL         0.0000
     34 H6         -3.0629    6.6984   -1.8475 H         1 MOL         0.0000
     35 H7         -4.6994    6.2167   -2.3619 H         1 MOL         0.0000
     36 H8          1.8955    1.1593   -1.8362 H         1 MOL         0.0000
     37 H9          3.0740    0.0127   -1.1766 H         1 MOL         0.0000
     38 H10         1.5363   -0.5765   -1.8023 H         1 MOL         0.0000
     39 H11         2.0457    2.4550    0.4225 H         1 MOL         0.0000
     40 H12         3.2090    1.2475    0.9842 H         1 MOL         0.0000
     41 H13         1.7539    1.5853    1.9390 H         1 MOL         0.0000
     42 H14        -2.1500   -1.6625    3.6657 H         1 MOL         0.0000
     43 H15        -2.7430   -3.3180    3.7079 H         1 MOL         0.0000
     44 H16        -3.1137   -0.5148   -1.2083 H         1 MOL         0.0000
     45 H17        -2.9042    0.2839    0.3335 H         1 MOL         0.0000
     46 H18        -0.4758    0.9016    1.1099 H         1 MOL         0.0000
     47 H19        -0.2136    1.7178   -0.4181 H         1 MOL         0.0000
     48 H20        -1.5662   -2.3924   -0.5671 H         1 MOL         0.0000
     49 H21         0.0505   -2.0684    0.0451 H         1 MOL         0.0000
     50 H22         1.5250   -0.5421    0.6895 H         1 MOL         0.0000
     51 H23        -0.6696   -0.3978   -1.6566 H         1 MOL         0.0000
     52 H24        -7.4164   -2.0507    4.0128 H         1 MOL         0.0000
     53 H25        -1.0267   -1.1353    2.0684 H         1 MOL         0.0000
@<TRIPOS>BOND
     1    1    2 ar
     2    1    7 ar
     3    2    9 ar
     4    3    4 2
     5    3    8 1
     6    4   22 1
     7    5    8 2
     8    5   22 1
     9    6    7 ar
    10    6   10 ar
    11    6   11 1
    12    7   17 1
    13    8   16 1
    14    9   10 ar
    15    9   27 1
    16   10   28 1
    17   11   24 1
    18   11   25 2
    19   12   16 1
    20   12   23 am
    21   12   26 2
    22   13   27 1
    23   13   28 1
    24   14   20 1
    25   15   20 1
    26   17   21 1
    27   18   20 1
    28   18   21 1
    29   19   21 1
    30   19   23 1
    31    1   29 1
    32    2   30 1
    33    3   31 1
    34    4   32 1
    35    5   33 1
    36   13   34 1
    37   13   35 1
    38   14   36 1
    39   14   37 1
    40   14   38 1
    41   15   39 1
    42   15   40 1
    43   15   41 1
    44   16   42 1
    45   16   43 1
    46   17   44 1
    47   17   45 1
    48   18   46 1
    49   18   47 1
    50   19   48 1
    51   19   49 1
    52   20   50 1
    53   21   51 1
    54   22   52 1
    55   23   53 1
