GL524384_1
  -OEChem-04011315043D

 56 59  0     1  0  0  0  0  0999 V2000
    1.8121    1.8090   -1.1916 C   0  0  0  0  0  0  0  0  0  0  0  0
    1.2445    1.0062   -2.1923 C   0  0  0  0  0  0  0  0  0  0  0  0
    1.4139    1.6723    0.1391 C   0  0  0  0  0  0  0  0  0  0  0  0
    0.2716    0.0548   -1.8762 C   0  0  0  0  0  0  0  0  0  0  0  0
   -3.5248   -2.9183    0.0661 C   0  0  0  0  0  0  0  0  0  0  0  0
   -4.5129   -3.6969    0.6734 C   0  0  0  0  0  0  0  0  0  0  0  0
   -1.7900   -4.4446    0.8335 C   0  0  0  0  0  0  0  0  0  0  0  0
    0.4574    0.7177    0.4451 C   0  0  0  0  0  0  0  0  0  0  0  0
   -0.1106   -0.0875   -0.5510 C   0  0  0  0  0  0  0  0  0  0  0  0
   -2.1712   -3.2900    0.1456 C   0  0  0  0  0  0  0  0  0  0  0  0
   -4.1100   -4.8319    1.3465 C   0  0  0  0  0  0  0  0  0  0  0  0
   -2.7851   -5.1959    1.4243 C   0  0  0  0  0  0  0  0  0  0  0  0
   -0.3803   -4.8559    0.9304 C   0  0  0  0  0  0  0  0  0  0  0  0
   -1.7755   -1.7981    3.6539 C   0  0  0  0  0  0  0  0  0  0  0  0
   -0.1388    0.4223    1.7852 C   0  0  0  0  0  0  0  0  0  0  0  0
   -3.9654   -6.6632    2.4899 C   0  0  0  0  0  0  0  0  0  0  0  0
   -1.1518   -1.0021    0.0354 C   0  0  2  0  0  0  0  0  0  0  0  0
   -0.7658   -0.9617    1.5347 C   0  0  2  0  0  0  0  0  0  0  0  0
   -1.1435   -2.4184   -0.5254 C   0  0  0  0  0  0  0  0  0  0  0  0
   -3.1238   -1.9132    4.3463 C   0  0  0  0  0  0  0  0  0  0  0  0
   -3.0518   -2.5513    5.7327 C   0  0  0  0  0  0  0  0  0  0  0  0
   -4.4143   -2.5843    6.4314 C   0  0  0  0  0  0  0  0  0  0  0  0
   -4.3103   -3.2528    7.7947 C   0  0  0  0  0  0  0  0  0  0  0  0
   -1.8889   -1.2126    2.3971 N   0  0  0  0  0  0  0  0  0  0  0  0
   -5.6385   -3.2225    8.4532 N   0  3  0  0  0  0  0  0  0  0  0  0
    0.1031   -5.6312    0.0226 O   0  5  0  0  0  0  0  0  0  0  0  0
    0.3239   -4.4274    1.9200 O   0  0  0  0  0  0  0  0  0  0  0  0
   -0.7219   -2.1640    4.1677 O   0  0  0  0  0  0  0  0  0  0  0  0
   -4.9255   -5.7076    1.9946 O   0  0  0  0  0  0  0  0  0  0  0  0
   -2.6052   -6.3448    2.1311 O   0  0  0  0  0  0  0  0  0  0  0  0
    2.5634    2.5477   -1.4572 H   0  0  0  0  0  0  0  0  0  0  0  0
    1.5604    1.1315   -3.2244 H   0  0  0  0  0  0  0  0  0  0  0  0
    1.8458    2.3010    0.9103 H   0  0  0  0  0  0  0  0  0  0  0  0
   -0.1719   -0.5499   -2.6597 H   0  0  0  0  0  0  0  0  0  0  0  0
   -3.8132   -2.0182   -0.4717 H   0  0  0  0  0  0  0  0  0  0  0  0
   -5.5577   -3.4138    0.6145 H   0  0  0  0  0  0  0  0  0  0  0  0
    0.6167    0.3767    2.5755 H   0  0  0  0  0  0  0  0  0  0  0  0
   -0.8902    1.1782    2.0386 H   0  0  0  0  0  0  0  0  0  0  0  0
   -4.0401   -6.7014    3.5828 H   0  0  0  0  0  0  0  0  0  0  0  0
   -4.2129   -7.6514    2.0852 H   0  0  0  0  0  0  0  0  0  0  0  0
   -2.1407   -0.5507   -0.1204 H   0  0  0  0  0  0  0  0  0  0  0  0
   -0.0191   -1.7378    1.7550 H   0  0  0  0  0  0  0  0  0  0  0  0
   -0.1470   -2.8572   -0.4016 H   0  0  0  0  0  0  0  0  0  0  0  0
   -1.3308   -2.3878   -1.6049 H   0  0  0  0  0  0  0  0  0  0  0  0
   -3.8141   -2.4747    3.7057 H   0  0  0  0  0  0  0  0  0  0  0  0
   -3.5197   -0.8949    4.4451 H   0  0  0  0  0  0  0  0  0  0  0  0
   -2.6430   -3.5666    5.6639 H   0  0  0  0  0  0  0  0  0  0  0  0
   -2.3542   -1.9681    6.3466 H   0  0  0  0  0  0  0  0  0  0  0  0
   -4.7900   -1.5601    6.5488 H   0  0  0  0  0  0  0  0  0  0  0  0
   -5.1425   -3.1220    5.8128 H   0  0  0  0  0  0  0  0  0  0  0  0
   -3.6157   -2.7278    8.4572 H   0  0  0  0  0  0  0  0  0  0  0  0
   -4.0198   -4.3044    7.7144 H   0  0  0  0  0  0  0  0  0  0  0  0
   -2.8153   -0.9566    2.0587 H   0  0  0  0  0  0  0  0  0  0  0  0
   -6.2615   -2.5494    7.9937 H   0  0  0  0  0  0  0  0  0  0  0  0
   -5.5533   -2.9514    9.4391 H   0  0  0  0  0  0  0  0  0  0  0  0
   -6.0879   -4.1441    8.4171 H   0  0  0  0  0  0  0  0  0  0  0  0
  1  2  1  0  0  0  0
  1  3  2  0  0  0  0
  2  4  2  0  0  0  0
  3  8  1  0  0  0  0
  4  9  1  0  0  0  0
  5  6  2  0  0  0  0
  5 10  1  0  0  0  0
  6 11  1  0  0  0  0
  7 10  2  0  0  0  0
  7 12  1  0  0  0  0
  7 13  1  0  0  0  0
  8  9  2  0  0  0  0
  8 15  1  0  0  0  0
  9 17  1  0  0  0  0
 10 19  1  0  0  0  0
 11 12  2  0  0  0  0
 11 29  1  0  0  0  0
 12 30  1  0  0  0  0
 13 26  1  0  0  0  0
 13 27  2  0  0  0  0
 14 20  1  0  0  0  0
 14 24  1  0  0  0  0
 14 28  2  0  0  0  0
 15 18  1  0  0  0  0
 16 29  1  0  0  0  0
 16 30  1  0  0  0  0
 17 18  1  0  0  0  0
 17 19  1  0  0  0  0
 18 24  1  0  0  0  0
 20 21  1  0  0  0  0
 21 22  1  0  0  0  0
 22 23  1  0  0  0  0
 23 25  1  0  0  0  0
  1 31  1  0  0  0  0
  2 32  1  0  0  0  0
  3 33  1  0  0  0  0
  4 34  1  0  0  0  0
  5 35  1  0  0  0  0
  6 36  1  0  0  0  0
 15 37  1  0  0  0  0
 15 38  1  0  0  0  0
 16 39  1  0  0  0  0
 16 40  1  0  0  0  0
 17 41  1  0  0  0  0
 18 42  1  0  0  0  0
 19 43  1  0  0  0  0
 19 44  1  0  0  0  0
 20 45  1  0  0  0  0
 20 46  1  0  0  0  0
 21 47  1  0  0  0  0
 21 48  1  0  0  0  0
 22 49  1  0  0  0  0
 22 50  1  0  0  0  0
 23 51  1  0  0  0  0
 23 52  1  0  0  0  0
 24 53  1  0  0  0  0
 25 54  1  0  0  0  0
 25 55  1  0  0  0  0
 25 56  1  0  0  0  0
M  CHG  2  25   1  26  -1
M  END
$$$$
