@<TRIPOS>MOLECULE
GL5243102_0
   52    54     0     0     0
SMALL
NO_CHARGES

@<TRIPOS>ATOM
      1 C1         -2.2653    1.6460   -2.7314 C.ar      1 MOL         0.0000
      2 C2         -2.4033    2.8517   -3.4232 C.ar      1 MOL         0.0000
      3 C3          5.4195    1.5668   -1.6151 C.2       1 MOL         0.0000
      4 C4          5.8112    0.1651   -3.2698 C.2       1 MOL         0.0000
      5 C5         -3.1942    2.6467   -0.7155 C.ar      1 MOL         0.0000
      6 C6         -2.6585    1.5440   -1.3854 C.ar      1 MOL         0.0000
      7 C7         -2.9350    3.9254   -2.7388 C.ar      1 MOL         0.0000
      8 C8         -3.3199    3.8256   -1.4213 C.ar      1 MOL         0.0000
      9 C9          4.6094    0.4585   -1.5378 C.2       1 MOL         0.0000
     10 C10        -3.6142    2.5657    0.6927 C.2       1 MOL         0.0000
     11 C11         2.1831    0.6596   -0.8672 C.2       1 MOL         0.0000
     12 C12        -3.7025    5.8446   -2.0989 C.3       1 MOL         0.0000
     13 C13        -1.1429   -3.0784   -2.0429 C.3       1 MOL         0.0000
     14 C14        -1.5340   -4.1008    0.2070 C.3       1 MOL         0.0000
     15 C15        -2.4894    0.2190   -0.6808 C.3       1 MOL         0.0000
     16 C16         3.5612    0.1405   -0.5046 C.3       1 MOL         0.0000
     17 C17        -0.9360   -1.6641    0.0717 C.3       1 MOL         0.0000
     18 C18        -0.1280    0.7815    0.0352 C.3       1 MOL         0.0000
     19 C19        -1.6703   -2.8251   -0.6302 C.3       1 MOL         0.0000
     20 C20        -1.0240   -0.2830   -0.6244 C.3       1 MOL         0.0000
     21 N1          4.8584   -0.4104   -2.5705 N.2       1 MOL         0.0000
     22 N2          6.1840    1.3643   -2.7294 N.pl3     1 MOL         0.0000
     23 N3          1.2517    0.3901    0.1308 N.am      1 MOL         0.0000
     24 O1         -4.8279    2.2269    0.9590 O.co2     1 MOL         0.0000
     25 O2         -2.7544    2.8367    1.6126 O.co2     1 MOL         0.0000
     26 O3          1.9347    1.2484   -1.9162 O.2       1 MOL         0.0000
     27 O4         -3.1438    5.1710   -3.2454 O.3       1 MOL         0.0000
     28 O5         -3.8176    4.9964   -0.9380 O.3       1 MOL         0.0000
     29 H1         -1.8496    0.7827   -3.2457 H         1 MOL         0.0000
     30 H2         -2.1015    2.9346   -4.4610 H         1 MOL         0.0000
     31 H3          5.5212    2.4511   -1.0024 H         1 MOL         0.0000
     32 H4          6.2694   -0.2282   -4.1663 H         1 MOL         0.0000
     33 H5         -3.0629    6.6984   -1.8475 H         1 MOL         0.0000
     34 H6         -4.6994    6.2167   -2.3619 H         1 MOL         0.0000
     35 H7         -0.0735   -3.3144   -2.0311 H         1 MOL         0.0000
     36 H8         -1.6688   -3.9188   -2.5089 H         1 MOL         0.0000
     37 H9         -1.2927   -2.2070   -2.6871 H         1 MOL         0.0000
     38 H10        -0.4820   -4.3875    0.3109 H         1 MOL         0.0000
     39 H11        -2.0607   -4.9355   -0.2674 H         1 MOL         0.0000
     40 H12        -1.9486   -3.9643    1.2116 H         1 MOL         0.0000
     41 H13        -3.1137   -0.5148   -1.2083 H         1 MOL         0.0000
     42 H14        -2.9042    0.2839    0.3335 H         1 MOL         0.0000
     43 H15         3.5035   -0.9461   -0.3619 H         1 MOL         0.0000
     44 H16         3.8531    0.5675    0.4632 H         1 MOL         0.0000
     45 H17        -1.3214   -1.5728    1.0960 H         1 MOL         0.0000
     46 H18         0.1205   -1.9437    0.1722 H         1 MOL         0.0000
     47 H19        -0.1586    1.7146   -0.5378 H         1 MOL         0.0000
     48 H20        -0.4714    1.0181    1.0466 H         1 MOL         0.0000
     49 H21        -2.7397   -2.5943   -0.6954 H         1 MOL         0.0000
     50 H22        -0.6696   -0.3978   -1.6566 H         1 MOL         0.0000
     51 H23         6.8947    1.9875   -3.0890 H         1 MOL         0.0000
     52 H24         1.5611   -0.1062    0.9653 H         1 MOL         0.0000
@<TRIPOS>BOND
     1    1    2 ar
     2    1    6 ar
     3    2    7 ar
     4    3    9 2
     5    3   22 1
     6    4   21 2
     7    4   22 1
     8    5    6 ar
     9    5    8 ar
    10    5   10 1
    11    6   15 1
    12    7    8 ar
    13    7   27 1
    14    8   28 1
    15    9   16 1
    16    9   21 1
    17   10   24 1
    18   10   25 2
    19   11   16 1
    20   11   23 am
    21   11   26 2
    22   12   27 1
    23   12   28 1
    24   13   19 1
    25   14   19 1
    26   15   20 1
    27   17   19 1
    28   17   20 1
    29   18   20 1
    30   18   23 1
    31    1   29 1
    32    2   30 1
    33    3   31 1
    34    4   32 1
    35   12   33 1
    36   12   34 1
    37   13   35 1
    38   13   36 1
    39   13   37 1
    40   14   38 1
    41   14   39 1
    42   14   40 1
    43   15   41 1
    44   15   42 1
    45   16   43 1
    46   16   44 1
    47   17   45 1
    48   17   46 1
    49   18   47 1
    50   18   48 1
    51   19   49 1
    52   20   50 1
    53   22   51 1
    54   23   52 1
