GL5243104_0
  -OEChem-04011315043D

 51 53  0     1  0  0  0  0  0999 V2000
   -2.5067    0.9004   -3.0947 C   0  0  0  0  0  0  0  0  0  0  0  0
   -2.7292    1.8221   -4.1205 C   0  0  0  0  0  0  0  0  0  0  0  0
    1.1231    3.8815   -3.5919 C   0  0  0  0  0  0  0  0  0  0  0  0
    0.1780    4.7332   -1.5509 C   0  0  0  0  0  0  0  0  0  0  0  0
    1.0078    5.1592   -4.1152 C   0  0  0  0  0  0  0  0  0  0  0  0
    0.1052    5.9729   -2.1655 C   0  0  0  0  0  0  0  0  0  0  0  0
    0.6980    3.6728   -2.2846 C   0  0  0  0  0  0  0  0  0  0  0  0
   -3.2082    2.5263   -1.4236 C   0  0  0  0  0  0  0  0  0  0  0  0
   -2.7449    1.2504   -1.7539 C   0  0  0  0  0  0  0  0  0  0  0  0
   -3.1866    3.0750   -3.7675 C   0  0  0  0  0  0  0  0  0  0  0  0
   -3.4198    3.4177   -2.4552 C   0  0  0  0  0  0  0  0  0  0  0  0
    0.7995    2.3222   -1.6742 C   0  0  0  0  0  0  0  0  0  0  0  0
   -3.4661    2.9169   -0.0283 C   0  0  0  0  0  0  0  0  0  0  0  0
   -3.8886    5.1208   -3.7047 C   0  0  0  0  0  0  0  0  0  0  0  0
   -1.1429   -3.0784   -2.0429 C   0  0  0  0  0  0  0  0  0  0  0  0
   -1.5340   -4.1008    0.2070 C   0  0  0  0  0  0  0  0  0  0  0  0
   -2.4894    0.2190   -0.6808 C   0  0  0  0  0  0  0  0  0  0  0  0
   -0.9360   -1.6641    0.0717 C   0  0  0  0  0  0  0  0  0  0  0  0
   -0.1280    0.7815    0.0352 C   0  0  0  0  0  0  0  0  0  0  0  0
   -1.6703   -2.8251   -0.6302 C   0  0  0  0  0  0  0  0  0  0  0  0
   -1.0240   -0.2830   -0.6244 C   0  0  2  0  0  0  0  0  0  0  0  0
    0.5080    6.2141   -3.4333 N   0  0  0  0  0  0  0  0  0  0  0  0
   -0.1151    2.0353   -0.6675 N   0  0  0  0  0  0  0  0  0  0  0  0
   -4.6400    2.7198    0.4637 O   0  5  0  0  0  0  0  0  0  0  0  0
    1.6746    1.5526   -2.0621 O   0  0  0  0  0  0  0  0  0  0  0  0
   -2.5097    3.4435    0.6550 O   0  0  0  0  0  0  0  0  0  0  0  0
   -3.4587    4.0965   -4.6246 O   0  0  0  0  0  0  0  0  0  0  0  0
   -3.8669    4.6965   -2.3264 O   0  0  0  0  0  0  0  0  0  0  0  0
   -2.1465   -0.0951   -3.3435 H   0  0  0  0  0  0  0  0  0  0  0  0
   -2.5468    1.5563   -5.1555 H   0  0  0  0  0  0  0  0  0  0  0  0
    1.5348    3.0767   -4.1918 H   0  0  0  0  0  0  0  0  0  0  0  0
   -0.1619    4.6046   -0.5288 H   0  0  0  0  0  0  0  0  0  0  0  0
    1.3259    5.3746   -5.1297 H   0  0  0  0  0  0  0  0  0  0  0  0
   -0.2929    6.8323   -1.6364 H   0  0  0  0  0  0  0  0  0  0  0  0
   -3.2299    5.9899   -3.8146 H   0  0  0  0  0  0  0  0  0  0  0  0
   -4.9110    5.4188   -3.9641 H   0  0  0  0  0  0  0  0  0  0  0  0
   -0.0735   -3.3144   -2.0311 H   0  0  0  0  0  0  0  0  0  0  0  0
   -1.6688   -3.9188   -2.5089 H   0  0  0  0  0  0  0  0  0  0  0  0
   -1.2927   -2.2070   -2.6871 H   0  0  0  0  0  0  0  0  0  0  0  0
   -0.4820   -4.3875    0.3109 H   0  0  0  0  0  0  0  0  0  0  0  0
   -2.0607   -4.9355   -0.2674 H   0  0  0  0  0  0  0  0  0  0  0  0
   -1.9486   -3.9643    1.2116 H   0  0  0  0  0  0  0  0  0  0  0  0
   -3.1648   -0.6261   -0.8709 H   0  0  0  0  0  0  0  0  0  0  0  0
   -2.7875    0.6205    0.2964 H   0  0  0  0  0  0  0  0  0  0  0  0
   -1.3214   -1.5728    1.0960 H   0  0  0  0  0  0  0  0  0  0  0  0
    0.1205   -1.9437    0.1722 H   0  0  0  0  0  0  0  0  0  0  0  0
   -0.4687    0.9882    1.0557 H   0  0  0  0  0  0  0  0  0  0  0  0
    0.9079    0.4378    0.1095 H   0  0  0  0  0  0  0  0  0  0  0  0
   -2.7397   -2.5943   -0.6954 H   0  0  0  0  0  0  0  0  0  0  0  0
   -0.6696   -0.3978   -1.6566 H   0  0  0  0  0  0  0  0  0  0  0  0
   -0.7700    2.7522   -0.3605 H   0  0  0  0  0  0  0  0  0  0  0  0
  1  2  2  0  0  0  0
  1  9  1  0  0  0  0
  2 10  1  0  0  0  0
  3  5  2  0  0  0  0
  3  7  1  0  0  0  0
  4  6  1  0  0  0  0
  4  7  2  0  0  0  0
  5 22  1  0  0  0  0
  6 22  2  0  0  0  0
  7 12  1  0  0  0  0
  8  9  2  0  0  0  0
  8 11  1  0  0  0  0
  8 13  1  0  0  0  0
  9 17  1  0  0  0  0
 10 11  2  0  0  0  0
 10 27  1  0  0  0  0
 11 28  1  0  0  0  0
 12 23  1  0  0  0  0
 12 25  2  0  0  0  0
 13 24  1  0  0  0  0
 13 26  2  0  0  0  0
 14 27  1  0  0  0  0
 14 28  1  0  0  0  0
 15 20  1  0  0  0  0
 16 20  1  0  0  0  0
 17 21  1  0  0  0  0
 18 20  1  0  0  0  0
 18 21  1  0  0  0  0
 19 21  1  0  0  0  0
 19 23  1  0  0  0  0
  1 29  1  0  0  0  0
  2 30  1  0  0  0  0
  3 31  1  0  0  0  0
  4 32  1  0  0  0  0
  5 33  1  0  0  0  0
  6 34  1  0  0  0  0
 14 35  1  0  0  0  0
 14 36  1  0  0  0  0
 15 37  1  0  0  0  0
 15 38  1  0  0  0  0
 15 39  1  0  0  0  0
 16 40  1  0  0  0  0
 16 41  1  0  0  0  0
 16 42  1  0  0  0  0
 17 43  1  0  0  0  0
 17 44  1  0  0  0  0
 18 45  1  0  0  0  0
 18 46  1  0  0  0  0
 19 47  1  0  0  0  0
 19 48  1  0  0  0  0
 20 49  1  0  0  0  0
 21 50  1  0  0  0  0
 23 51  1  0  0  0  0
M  CHG  1  24  -1
M  END
$$$$
