GL5243106_1
  -OEChem-04011315043D

 54 56  0     1  0  0  0  0  0999 V2000
   -1.8966   -4.7968   -3.6891 C   0  0  0  0  0  0  0  0  0  0  0  0
   -3.2163   -4.9056   -1.6683 C   0  0  0  0  0  0  0  0  0  0  0  0
   -2.5816    2.6097   -1.4340 C   0  0  0  0  0  0  0  0  0  0  0  0
   -2.7672   -5.6951   -4.3060 C   0  0  0  0  0  0  0  0  0  0  0  0
   -4.0869   -5.8040   -2.2853 C   0  0  0  0  0  0  0  0  0  0  0  0
   -2.8069    3.5984   -2.3948 C   0  0  0  0  0  0  0  0  0  0  0  0
   -2.1211   -4.4021   -2.3702 C   0  0  0  0  0  0  0  0  0  0  0  0
   -3.1356    0.8641   -3.0384 C   0  0  0  0  0  0  0  0  0  0  0  0
   -2.7449    1.2504   -1.7539 C   0  0  0  0  0  0  0  0  0  0  0  0
   -3.8623   -6.1987   -3.6041 C   0  0  0  0  0  0  0  0  0  0  0  0
   -3.1918    3.1904   -3.6554 C   0  0  0  0  0  0  0  0  0  0  0  0
   -3.3516    1.8599   -3.9686 C   0  0  0  0  0  0  0  0  0  0  0  0
   -1.1938   -3.4453   -1.7131 C   0  0  0  0  0  0  0  0  0  0  0  0
   -3.3125   -0.5518   -3.3987 C   0  0  0  0  0  0  0  0  0  0  0  0
   -3.7966    3.0391   -5.7274 C   0  0  0  0  0  0  0  0  0  0  0  0
    2.0052    0.2419   -1.2482 C   0  0  0  0  0  0  0  0  0  0  0  0
    2.1417    1.4838    0.9196 C   0  0  0  0  0  0  0  0  0  0  0  0
   -2.4894    0.2190   -0.6808 C   0  0  0  0  0  0  0  0  0  0  0  0
   -0.1114    0.7480    0.0855 C   0  0  0  0  0  0  0  0  0  0  0  0
   -0.9724   -1.6815    0.0179 C   0  0  0  0  0  0  0  0  0  0  0  0
    1.3900    0.3982    0.1429 C   0  0  0  0  0  0  0  0  0  0  0  0
   -1.0240   -0.2830   -0.6244 C   0  0  1  0  0  0  0  0  0  0  0  0
   -4.7426   -7.1070   -4.2280 N   0  0  0  0  0  0  0  0  0  0  0  0
   -1.7358   -2.6685   -0.6957 N   0  0  0  0  0  0  0  0  0  0  0  0
   -2.3037   -1.2039   -3.8635 O   0  5  0  0  0  0  0  0  0  0  0  0
   -0.0312   -3.3731   -2.1024 O   0  0  0  0  0  0  0  0  0  0  0  0
   -4.4703   -1.0925   -3.2378 O   0  0  0  0  0  0  0  0  0  0  0  0
   -3.4533    4.0055   -4.7133 O   0  0  0  0  0  0  0  0  0  0  0  0
   -3.7335    1.6754   -5.2617 O   0  0  0  0  0  0  0  0  0  0  0  0
   -1.0463   -4.4106   -4.2454 H   0  0  0  0  0  0  0  0  0  0  0  0
   -3.4007   -4.6048   -0.6402 H   0  0  0  0  0  0  0  0  0  0  0  0
   -2.2769    2.9020   -0.4319 H   0  0  0  0  0  0  0  0  0  0  0  0
   -2.5828   -5.9961   -5.3342 H   0  0  0  0  0  0  0  0  0  0  0  0
   -4.9373   -6.1903   -1.7291 H   0  0  0  0  0  0  0  0  0  0  0  0
   -2.6820    4.6476   -2.1523 H   0  0  0  0  0  0  0  0  0  0  0  0
   -4.8152    3.2437   -6.0766 H   0  0  0  0  0  0  0  0  0  0  0  0
   -3.1055    3.1543   -6.5703 H   0  0  0  0  0  0  0  0  0  0  0  0
    1.8955    1.1593   -1.8362 H   0  0  0  0  0  0  0  0  0  0  0  0
    3.0740    0.0127   -1.1766 H   0  0  0  0  0  0  0  0  0  0  0  0
    1.5363   -0.5765   -1.8023 H   0  0  0  0  0  0  0  0  0  0  0  0
    2.0457    2.4550    0.4225 H   0  0  0  0  0  0  0  0  0  0  0  0
    3.2090    1.2475    0.9842 H   0  0  0  0  0  0  0  0  0  0  0  0
    1.7539    1.5853    1.9390 H   0  0  0  0  0  0  0  0  0  0  0  0
   -3.1648   -0.6261   -0.8709 H   0  0  0  0  0  0  0  0  0  0  0  0
   -2.7875    0.6205    0.2964 H   0  0  0  0  0  0  0  0  0  0  0  0
   -0.4758    0.9016    1.1099 H   0  0  0  0  0  0  0  0  0  0  0  0
   -0.2136    1.7178   -0.4181 H   0  0  0  0  0  0  0  0  0  0  0  0
    0.0606   -2.0437    0.0615 H   0  0  0  0  0  0  0  0  0  0  0  0
   -1.3455   -1.6603    1.0460 H   0  0  0  0  0  0  0  0  0  0  0  0
    1.5250   -0.5421    0.6895 H   0  0  0  0  0  0  0  0  0  0  0  0
   -0.6696   -0.3978   -1.6566 H   0  0  0  0  0  0  0  0  0  0  0  0
   -4.5977   -7.3457   -5.1882 H   0  0  0  0  0  0  0  0  0  0  0  0
   -5.5498   -7.4240   -3.7300 H   0  0  0  0  0  0  0  0  0  0  0  0
   -2.7270   -2.7450   -0.4749 H   0  0  0  0  0  0  0  0  0  0  0  0
  1  4  2  0  0  0  0
  1  7  1  0  0  0  0
  2  5  1  0  0  0  0
  2  7  2  0  0  0  0
  3  6  2  0  0  0  0
  3  9  1  0  0  0  0
  4 10  1  0  0  0  0
  5 10  2  0  0  0  0
  6 11  1  0  0  0  0
  7 13  1  0  0  0  0
  8  9  2  0  0  0  0
  8 12  1  0  0  0  0
  8 14  1  0  0  0  0
  9 18  1  0  0  0  0
 10 23  1  0  0  0  0
 11 12  2  0  0  0  0
 11 28  1  0  0  0  0
 12 29  1  0  0  0  0
 13 24  1  0  0  0  0
 13 26  2  0  0  0  0
 14 25  1  0  0  0  0
 14 27  2  0  0  0  0
 15 28  1  0  0  0  0
 15 29  1  0  0  0  0
 16 21  1  0  0  0  0
 17 21  1  0  0  0  0
 18 22  1  0  0  0  0
 19 21  1  0  0  0  0
 19 22  1  0  0  0  0
 20 22  1  0  0  0  0
 20 24  1  0  0  0  0
  1 30  1  0  0  0  0
  2 31  1  0  0  0  0
  3 32  1  0  0  0  0
  4 33  1  0  0  0  0
  5 34  1  0  0  0  0
  6 35  1  0  0  0  0
 15 36  1  0  0  0  0
 15 37  1  0  0  0  0
 16 38  1  0  0  0  0
 16 39  1  0  0  0  0
 16 40  1  0  0  0  0
 17 41  1  0  0  0  0
 17 42  1  0  0  0  0
 17 43  1  0  0  0  0
 18 44  1  0  0  0  0
 18 45  1  0  0  0  0
 19 46  1  0  0  0  0
 19 47  1  0  0  0  0
 20 48  1  0  0  0  0
 20 49  1  0  0  0  0
 21 50  1  0  0  0  0
 22 51  1  0  0  0  0
 23 52  1  0  0  0  0
 23 53  1  0  0  0  0
 24 54  1  0  0  0  0
M  CHG  1  25  -1
M  END
$$$$
