@<TRIPOS>MOLECULE
GL5243102_1
   52    54     0     0     0
SMALL
NO_CHARGES

@<TRIPOS>ATOM
      1 C1         -2.5816    2.6097   -1.4340 C.ar      1 MOL         0.0000
      2 C2         -2.8069    3.5984   -2.3948 C.ar      1 MOL         0.0000
      3 C3         -1.6068   -5.0823   -4.7161 C.2       1 MOL         0.0000
      4 C4         -0.7281   -7.0324   -4.1857 C.2       1 MOL         0.0000
      5 C5         -3.1356    0.8641   -3.0384 C.ar      1 MOL         0.0000
      6 C6         -2.7449    1.2504   -1.7539 C.ar      1 MOL         0.0000
      7 C7         -3.1918    3.1904   -3.6554 C.ar      1 MOL         0.0000
      8 C8         -3.3516    1.8599   -3.9686 C.ar      1 MOL         0.0000
      9 C9         -1.6599   -5.3058   -3.3605 C.2       1 MOL         0.0000
     10 C10        -3.3125   -0.5518   -3.3987 C.2       1 MOL         0.0000
     11 C11        -1.1964   -3.4476   -1.7145 C.2       1 MOL         0.0000
     12 C12        -3.7966    3.0391   -5.7274 C.3       1 MOL         0.0000
     13 C13         2.0052    0.2419   -1.2482 C.3       1 MOL         0.0000
     14 C14         2.1417    1.4838    0.9196 C.3       1 MOL         0.0000
     15 C15        -2.4894    0.2190   -0.6808 C.3       1 MOL         0.0000
     16 C16        -2.2198   -4.4081   -2.2891 C.3       1 MOL         0.0000
     17 C17        -0.1114    0.7480    0.0855 C.3       1 MOL         0.0000
     18 C18        -0.9724   -1.6815    0.0179 C.3       1 MOL         0.0000
     19 C19         1.3900    0.3982    0.1429 C.3       1 MOL         0.0000
     20 C20        -1.0240   -0.2830   -0.6244 C.3       1 MOL         0.0000
     21 N1         -1.1110   -6.5214   -3.0368 N.2       1 MOL         0.0000
     22 N2         -1.0069   -6.1967   -5.2313 N.pl3     1 MOL         0.0000
     23 N3         -1.7358   -2.6685   -0.6957 N.am      1 MOL         0.0000
     24 O1         -2.3037   -1.2039   -3.8635 O.co2     1 MOL         0.0000
     25 O2         -4.4703   -1.0925   -3.2378 O.co2     1 MOL         0.0000
     26 O3         -0.0347   -3.3796   -2.1077 O.2       1 MOL         0.0000
     27 O4         -3.4533    4.0055   -4.7133 O.3       1 MOL         0.0000
     28 O5         -3.7335    1.6754   -5.2617 O.3       1 MOL         0.0000
     29 H1         -2.2769    2.9020   -0.4319 H         1 MOL         0.0000
     30 H2         -2.6820    4.6476   -2.1523 H         1 MOL         0.0000
     31 H3         -1.9281   -4.2623   -5.3423 H         1 MOL         0.0000
     32 H4         -0.2491   -7.9908   -4.3284 H         1 MOL         0.0000
     33 H5         -4.8152    3.2437   -6.0766 H         1 MOL         0.0000
     34 H6         -3.1055    3.1543   -6.5703 H         1 MOL         0.0000
     35 H7          1.8955    1.1593   -1.8362 H         1 MOL         0.0000
     36 H8          3.0740    0.0127   -1.1766 H         1 MOL         0.0000
     37 H9          1.5363   -0.5765   -1.8023 H         1 MOL         0.0000
     38 H10         2.0457    2.4550    0.4225 H         1 MOL         0.0000
     39 H11         3.2090    1.2475    0.9842 H         1 MOL         0.0000
     40 H12         1.7539    1.5853    1.9390 H         1 MOL         0.0000
     41 H13        -3.1648   -0.6261   -0.8709 H         1 MOL         0.0000
     42 H14        -2.7875    0.6205    0.2964 H         1 MOL         0.0000
     43 H15        -3.0587   -3.8292   -2.6959 H         1 MOL         0.0000
     44 H16        -2.6274   -5.0162   -1.4716 H         1 MOL         0.0000
     45 H17        -0.4758    0.9016    1.1099 H         1 MOL         0.0000
     46 H18        -0.2136    1.7178   -0.4181 H         1 MOL         0.0000
     47 H19         0.0606   -2.0437    0.0615 H         1 MOL         0.0000
     48 H20        -1.3455   -1.6603    1.0460 H         1 MOL         0.0000
     49 H21         1.5250   -0.5421    0.6895 H         1 MOL         0.0000
     50 H22        -0.6696   -0.3978   -1.6566 H         1 MOL         0.0000
     51 H23        -0.8067   -6.3719   -6.2069 H         1 MOL         0.0000
     52 H24        -2.7141   -2.8033   -0.4446 H         1 MOL         0.0000
@<TRIPOS>BOND
     1    1    2 ar
     2    1    6 ar
     3    2    7 ar
     4    3    9 2
     5    3   22 1
     6    4   21 2
     7    4   22 1
     8    5    6 ar
     9    5    8 ar
    10    5   10 1
    11    6   15 1
    12    7    8 ar
    13    7   27 1
    14    8   28 1
    15    9   16 1
    16    9   21 1
    17   10   24 1
    18   10   25 2
    19   11   16 1
    20   11   23 am
    21   11   26 2
    22   12   27 1
    23   12   28 1
    24   13   19 1
    25   14   19 1
    26   15   20 1
    27   17   19 1
    28   17   20 1
    29   18   20 1
    30   18   23 1
    31    1   29 1
    32    2   30 1
    33    3   31 1
    34    4   32 1
    35   12   33 1
    36   12   34 1
    37   13   35 1
    38   13   36 1
    39   13   37 1
    40   14   38 1
    41   14   39 1
    42   14   40 1
    43   15   41 1
    44   15   42 1
    45   16   43 1
    46   16   44 1
    47   17   45 1
    48   17   46 1
    49   18   47 1
    50   18   48 1
    51   19   49 1
    52   20   50 1
    53   22   51 1
    54   23   52 1
