GL5243100_1
  -OEChem-04011315043D

 53 55  0     1  0  0  0  0  0999 V2000
   -2.2653    1.6460   -2.7314 C   0  0  0  0  0  0  0  0  0  0  0  0
   -2.4033    2.8517   -3.4232 C   0  0  0  0  0  0  0  0  0  0  0  0
   -4.6651   -0.4817    3.5928 C   0  0  0  0  0  0  0  0  0  0  0  0
   -6.0218   -0.4636    3.8298 C   0  0  0  0  0  0  0  0  0  0  0  0
   -5.4039   -2.6080    3.6444 C   0  0  0  0  0  0  0  0  0  0  0  0
   -3.1942    2.6467   -0.7155 C   0  0  0  0  0  0  0  0  0  0  0  0
   -2.6585    1.5440   -1.3854 C   0  0  0  0  0  0  0  0  0  0  0  0
   -4.2741   -1.8383    3.4756 C   0  0  0  0  0  0  0  0  0  0  0  0
   -2.9350    3.9254   -2.7388 C   0  0  0  0  0  0  0  0  0  0  0  0
   -3.3199    3.8256   -1.4213 C   0  0  0  0  0  0  0  0  0  0  0  0
   -3.6142    2.5657    0.6927 C   0  0  0  0  0  0  0  0  0  0  0  0
   -2.5624   -2.5013    1.7412 C   0  0  0  0  0  0  0  0  0  0  0  0
   -3.7025    5.8446   -2.0989 C   0  0  0  0  0  0  0  0  0  0  0  0
    2.0052    0.2419   -1.2482 C   0  0  0  0  0  0  0  0  0  0  0  0
    2.1417    1.4838    0.9196 C   0  0  0  0  0  0  0  0  0  0  0  0
   -2.8807   -2.3468    3.2160 C   0  0  0  0  0  0  0  0  0  0  0  0
   -2.4894    0.2190   -0.6808 C   0  0  0  0  0  0  0  0  0  0  0  0
   -0.1114    0.7480    0.0855 C   0  0  0  0  0  0  0  0  0  0  0  0
   -0.9724   -1.6815    0.0179 C   0  0  0  0  0  0  0  0  0  0  0  0
    1.3900    0.3982    0.1429 C   0  0  0  0  0  0  0  0  0  0  0  0
   -1.0240   -0.2830   -0.6244 C   0  0  1  0  0  0  0  0  0  0  0  0
   -6.4603   -1.7618    3.8588 N   0  0  0  0  0  0  0  0  0  0  0  0
   -1.4796   -1.7139    1.3623 N   0  0  0  0  0  0  0  0  0  0  0  0
   -4.8279    2.2269    0.9590 O   0  5  0  0  0  0  0  0  0  0  0  0
   -2.7544    2.8367    1.6126 O   0  0  0  0  0  0  0  0  0  0  0  0
   -3.1901   -3.2389    0.9858 O   0  0  0  0  0  0  0  0  0  0  0  0
   -3.1438    5.1710   -3.2454 O   0  0  0  0  0  0  0  0  0  0  0  0
   -3.8176    4.9964   -0.9380 O   0  0  0  0  0  0  0  0  0  0  0  0
   -1.8496    0.7827   -3.2457 H   0  0  0  0  0  0  0  0  0  0  0  0
   -2.1015    2.9346   -4.4610 H   0  0  0  0  0  0  0  0  0  0  0  0
   -4.0310    0.3906    3.5130 H   0  0  0  0  0  0  0  0  0  0  0  0
   -6.7131    0.3540    3.9779 H   0  0  0  0  0  0  0  0  0  0  0  0
   -5.5526   -3.6789    3.6313 H   0  0  0  0  0  0  0  0  0  0  0  0
   -3.0629    6.6984   -1.8475 H   0  0  0  0  0  0  0  0  0  0  0  0
   -4.6994    6.2167   -2.3619 H   0  0  0  0  0  0  0  0  0  0  0  0
    1.8955    1.1593   -1.8362 H   0  0  0  0  0  0  0  0  0  0  0  0
    3.0740    0.0127   -1.1766 H   0  0  0  0  0  0  0  0  0  0  0  0
    1.5363   -0.5765   -1.8023 H   0  0  0  0  0  0  0  0  0  0  0  0
    2.0457    2.4550    0.4225 H   0  0  0  0  0  0  0  0  0  0  0  0
    3.2090    1.2475    0.9842 H   0  0  0  0  0  0  0  0  0  0  0  0
    1.7539    1.5853    1.9390 H   0  0  0  0  0  0  0  0  0  0  0  0
   -2.1500   -1.6625    3.6657 H   0  0  0  0  0  0  0  0  0  0  0  0
   -2.7430   -3.3180    3.7079 H   0  0  0  0  0  0  0  0  0  0  0  0
   -3.1137   -0.5148   -1.2083 H   0  0  0  0  0  0  0  0  0  0  0  0
   -2.9042    0.2839    0.3335 H   0  0  0  0  0  0  0  0  0  0  0  0
   -0.4758    0.9016    1.1099 H   0  0  0  0  0  0  0  0  0  0  0  0
   -0.2136    1.7178   -0.4181 H   0  0  0  0  0  0  0  0  0  0  0  0
   -1.5662   -2.3924   -0.5671 H   0  0  0  0  0  0  0  0  0  0  0  0
    0.0505   -2.0684    0.0451 H   0  0  0  0  0  0  0  0  0  0  0  0
    1.5250   -0.5421    0.6895 H   0  0  0  0  0  0  0  0  0  0  0  0
   -0.6696   -0.3978   -1.6566 H   0  0  0  0  0  0  0  0  0  0  0  0
   -7.4164   -2.0507    4.0128 H   0  0  0  0  0  0  0  0  0  0  0  0
   -1.0267   -1.1353    2.0684 H   0  0  0  0  0  0  0  0  0  0  0  0
  1  2  2  0  0  0  0
  1  7  1  0  0  0  0
  2  9  1  0  0  0  0
  3  4  2  0  0  0  0
  3  8  1  0  0  0  0
  4 22  1  0  0  0  0
  5  8  2  0  0  0  0
  5 22  1  0  0  0  0
  6  7  2  0  0  0  0
  6 10  1  0  0  0  0
  6 11  1  0  0  0  0
  7 17  1  0  0  0  0
  8 16  1  0  0  0  0
  9 10  2  0  0  0  0
  9 27  1  0  0  0  0
 10 28  1  0  0  0  0
 11 24  1  0  0  0  0
 11 25  2  0  0  0  0
 12 16  1  0  0  0  0
 12 23  1  0  0  0  0
 12 26  2  0  0  0  0
 13 27  1  0  0  0  0
 13 28  1  0  0  0  0
 14 20  1  0  0  0  0
 15 20  1  0  0  0  0
 17 21  1  0  0  0  0
 18 20  1  0  0  0  0
 18 21  1  0  0  0  0
 19 21  1  0  0  0  0
 19 23  1  0  0  0  0
  1 29  1  0  0  0  0
  2 30  1  0  0  0  0
  3 31  1  0  0  0  0
  4 32  1  0  0  0  0
  5 33  1  0  0  0  0
 13 34  1  0  0  0  0
 13 35  1  0  0  0  0
 14 36  1  0  0  0  0
 14 37  1  0  0  0  0
 14 38  1  0  0  0  0
 15 39  1  0  0  0  0
 15 40  1  0  0  0  0
 15 41  1  0  0  0  0
 16 42  1  0  0  0  0
 16 43  1  0  0  0  0
 17 44  1  0  0  0  0
 17 45  1  0  0  0  0
 18 46  1  0  0  0  0
 18 47  1  0  0  0  0
 19 48  1  0  0  0  0
 19 49  1  0  0  0  0
 20 50  1  0  0  0  0
 21 51  1  0  0  0  0
 22 52  1  0  0  0  0
 23 53  1  0  0  0  0
M  CHG  1  24  -1
M  END
$$$$
