@<TRIPOS>MOLECULE
pC2A03_0
   30    32     0     0     0
SMALL
NO_CHARGES

@<TRIPOS>ATOM
      1 C1          2.8846   -0.4599   -3.1207 C.ar      1 MOL         0.0000
      2 C2          3.5376    1.3917   -1.7128 C.ar      1 MOL         0.0000
      3 C3          4.0169   -0.2589   -3.9102 C.ar      1 MOL         0.0000
      4 C4          4.6699    1.5927   -2.5022 C.ar      1 MOL         0.0000
      5 C5          2.6450    0.3655   -2.0220 C.ar      1 MOL         0.0000
      6 C6          4.9095    0.7674   -3.6010 C.ar      1 MOL         0.0000
      7 C7          0.5084   -0.8126   -1.3882 C.2       1 MOL         0.0000
      8 C8         -0.4319   -0.7038   -0.4413 C.2       1 MOL         0.0000
      9 C9          1.1185    0.9293   -0.0421 C.2       1 MOL         0.0000
     10 C10        -1.6620   -1.5133   -0.2255 C.3       1 MOL         0.0000
     11 C11        -2.1962   -1.3864    1.2039 C.3       1 MOL         0.0000
     12 C12        -2.2278    0.0789    1.6394 C.3       1 MOL         0.0000
     13 C13        -0.8263    0.6799    1.5984 C.3       1 MOL         0.0000
     14 N1          1.4857    0.1594   -1.2134 N.am      1 MOL         0.0000
     15 N2         -0.1041    0.3403    0.3900 N.am      1 MOL         0.0000
     16 O1          1.6907    1.8627    0.5007 O.2       1 MOL         0.0000
     17 Br1         6.4435    1.0395   -4.6707 Br        1 MOL         0.0000
     18 H1          2.1955   -1.2623   -3.3708 H         1 MOL         0.0000
     19 H2          3.3605    2.0406   -0.8590 H         1 MOL         0.0000
     20 H3          4.1895   -0.9105   -4.7627 H         1 MOL         0.0000
     21 H4          5.3557    2.3967   -2.2482 H         1 MOL         0.0000
     22 H5          0.5666   -1.5208   -2.2001 H         1 MOL         0.0000
     23 H6         -2.4345   -1.1616   -0.9209 H         1 MOL         0.0000
     24 H7         -1.4761   -2.5687   -0.4548 H         1 MOL         0.0000
     25 H8         -3.2032   -1.8149    1.2592 H         1 MOL         0.0000
     26 H9         -1.5630   -1.9614    1.8912 H         1 MOL         0.0000
     27 H10        -2.8888    0.6409    0.9680 H         1 MOL         0.0000
     28 H11        -2.6416    0.1677    2.6498 H         1 MOL         0.0000
     29 H12        -0.8609    1.7707    1.6931 H         1 MOL         0.0000
     30 H13        -0.2286    0.3078    2.4394 H         1 MOL         0.0000
@<TRIPOS>BOND
     1    1    3 ar
     2    1    5 ar
     3    2    4 ar
     4    2    5 ar
     5    3    6 ar
     6    4    6 ar
     7    5   14 1
     8    6   17 1
     9    7    8 2
    10    7   14 1
    11    8   10 1
    12    8   15 1
    13    9   14 am
    14    9   15 am
    15    9   16 2
    16   10   11 1
    17   11   12 1
    18   12   13 1
    19   13   15 1
    20    1   18 1
    21    2   19 1
    22    3   20 1
    23    4   21 1
    24    7   22 1
    25   10   23 1
    26   10   24 1
    27   11   25 1
    28   11   26 1
    29   12   27 1
    30   12   28 1
    31   13   29 1
    32   13   30 1
