pC2A03_0
  -OEChem-04011315043D

 30 32  0     0  0  0  0  0  0999 V2000
    2.8846   -0.4599   -3.1207 C   0  0  0  0  0  0  0  0  0  0  0  0
    3.5376    1.3917   -1.7128 C   0  0  0  0  0  0  0  0  0  0  0  0
    4.0169   -0.2589   -3.9102 C   0  0  0  0  0  0  0  0  0  0  0  0
    4.6699    1.5927   -2.5022 C   0  0  0  0  0  0  0  0  0  0  0  0
    2.6450    0.3655   -2.0220 C   0  0  0  0  0  0  0  0  0  0  0  0
    4.9095    0.7674   -3.6010 C   0  0  0  0  0  0  0  0  0  0  0  0
    0.5084   -0.8126   -1.3882 C   0  0  0  0  0  0  0  0  0  0  0  0
   -0.4319   -0.7038   -0.4413 C   0  0  0  0  0  0  0  0  0  0  0  0
    1.1185    0.9293   -0.0421 C   0  0  0  0  0  0  0  0  0  0  0  0
   -1.6620   -1.5133   -0.2255 C   0  0  0  0  0  0  0  0  0  0  0  0
   -2.1962   -1.3864    1.2039 C   0  0  0  0  0  0  0  0  0  0  0  0
   -2.2278    0.0789    1.6394 C   0  0  0  0  0  0  0  0  0  0  0  0
   -0.8263    0.6799    1.5984 C   0  0  0  0  0  0  0  0  0  0  0  0
    1.4857    0.1594   -1.2134 N   0  0  0  0  0  0  0  0  0  0  0  0
   -0.1041    0.3403    0.3900 N   0  0  0  0  0  0  0  0  0  0  0  0
    1.6907    1.8627    0.5007 O   0  0  0  0  0  0  0  0  0  0  0  0
    6.4435    1.0395   -4.6707 Br  0  0  0  0  0  0  0  0  0  0  0  0
    2.1955   -1.2623   -3.3708 H   0  0  0  0  0  0  0  0  0  0  0  0
    3.3605    2.0406   -0.8590 H   0  0  0  0  0  0  0  0  0  0  0  0
    4.1895   -0.9105   -4.7627 H   0  0  0  0  0  0  0  0  0  0  0  0
    5.3557    2.3967   -2.2482 H   0  0  0  0  0  0  0  0  0  0  0  0
    0.5666   -1.5208   -2.2001 H   0  0  0  0  0  0  0  0  0  0  0  0
   -2.4345   -1.1616   -0.9209 H   0  0  0  0  0  0  0  0  0  0  0  0
   -1.4761   -2.5687   -0.4548 H   0  0  0  0  0  0  0  0  0  0  0  0
   -3.2032   -1.8149    1.2592 H   0  0  0  0  0  0  0  0  0  0  0  0
   -1.5630   -1.9614    1.8912 H   0  0  0  0  0  0  0  0  0  0  0  0
   -2.8888    0.6409    0.9680 H   0  0  0  0  0  0  0  0  0  0  0  0
   -2.6416    0.1677    2.6498 H   0  0  0  0  0  0  0  0  0  0  0  0
   -0.8609    1.7707    1.6931 H   0  0  0  0  0  0  0  0  0  0  0  0
   -0.2286    0.3078    2.4394 H   0  0  0  0  0  0  0  0  0  0  0  0
  1  3  1  0  0  0  0
  1  5  2  0  0  0  0
  2  4  2  0  0  0  0
  2  5  1  0  0  0  0
  3  6  2  0  0  0  0
  4  6  1  0  0  0  0
  5 14  1  0  0  0  0
  6 17  1  0  0  0  0
  7  8  2  0  0  0  0
  7 14  1  0  0  0  0
  8 10  1  0  0  0  0
  8 15  1  0  0  0  0
  9 14  1  0  0  0  0
  9 15  1  0  0  0  0
  9 16  2  0  0  0  0
 10 11  1  0  0  0  0
 11 12  1  0  0  0  0
 12 13  1  0  0  0  0
 13 15  1  0  0  0  0
  1 18  1  0  0  0  0
  2 19  1  0  0  0  0
  3 20  1  0  0  0  0
  4 21  1  0  0  0  0
  7 22  1  0  0  0  0
 10 23  1  0  0  0  0
 10 24  1  0  0  0  0
 11 25  1  0  0  0  0
 11 26  1  0  0  0  0
 12 27  1  0  0  0  0
 12 28  1  0  0  0  0
 13 29  1  0  0  0  0
 13 30  1  0  0  0  0
M  END
$$$$
