@<TRIPOS>MOLECULE
AVX-17543_0
57   58    1
SMALL
USER_CHARGES


@<TRIPOS>ATOM
      1 C1          7.9504  -22.6789   -2.3021 C.ar      1 UNK        -0.1150 
      2 C2          9.0199  -23.6037   -2.3557 C.ar      1 UNK        -0.1150 
      3 C3          6.7779  -24.0606   -0.6336 C.ar      1 UNK        -0.1150 
      4 C4          6.8278  -22.8926   -1.4489 C.ar      1 UNK        -0.1150 
      5 C5          8.9097  -24.7632   -1.5723 C.ar      1 UNK         0.0850 
      6 C6          7.8194  -24.9947   -0.7628 C.ar      1 UNK         0.0850 
      7 C7          5.7201  -24.2831    0.4048 C.2       1 UNK         0.7150 
      8 C8          1.9739  -21.3486   -1.4867 C.2       1 UNK         0.5000 
      9 C9          9.1811  -26.7135   -0.5836 C.3       1 UNK         0.2000 
     10 C10         6.5032  -17.5384   -2.3720 C.3       1 UNK        -0.1800 
     11 C11         5.7403  -21.8227   -1.3478 C.3       1 UNK        -0.0050 
     12 C12         0.7793  -20.4267   -1.2245 C.3       1 UNK        -0.1200 
     13 C13         6.5760  -19.0615   -2.6251 C.3       1 UNK        -0.1200 
     14 C14         0.9082  -19.6157    0.0851 C.3       1 UNK        -0.1200 
     15 C15         2.1357  -18.6856    0.1627 C.3       1 UNK        -0.1200 
     16 C16         2.0614  -17.4790   -0.7913 C.3       1 UNK        -0.1200 
     17 C17         5.1872  -19.7233   -2.5800 C.3       1 UNK        -0.1200 
     18 C18         3.8399  -21.8661   -3.0729 C.3       1 UNK         0.0800 
     19 C19         3.4193  -16.8871   -1.2095 C.3       1 UNK         0.1900 
     20 C20         5.2163  -21.2514   -2.6824 C.3       1 UNK        -0.0600 
     21 N21         2.6799  -21.1098   -2.6014 N.am      1 UNK        -0.5000 
     22 N22         3.8199  -15.7504   -0.3709 N.4       1 UNK        -0.3000 
     23 O23         5.4864  -23.3736    1.2280 O.co2     1 UNK        -0.8000 
     24 O24         5.1240  -25.3726    0.4280 O.co2     1 UNK        -0.8000 
     25 O25         2.2375  -22.2481   -0.6914 O.2       1 UNK        -0.5000 
     26 O26         9.8000  -25.7735   -1.4187 O.3       1 UNK        -0.2850 
     27 O27         7.9932  -26.1663   -0.0993 O.3       1 UNK        -0.2850 
     28 H28         8.0251  -21.7746   -2.8864 H         1 UNK         0.1150 
     29 H29         9.8882  -23.4285   -2.9743 H         1 UNK         0.1150 
     30 H30         8.9562  -27.6140   -1.1575 H         1 UNK         0.1000 
     31 H31         9.8203  -26.9732    0.2571 H         1 UNK         0.1000 
     32 H32         7.4198  -16.9735   -2.5490 H         1 UNK         0.0600 
     33 H33         5.7382  -17.0800   -2.9964 H         1 UNK         0.0600 
     34 H34         6.2512  -17.3400   -1.3324 H         1 UNK         0.0600 
     35 H35         4.8706  -22.1533   -0.7886 H         1 UNK         0.0600 
     36 H36         6.1685  -21.0449   -0.7197 H         1 UNK         0.0600 
     37 H37         0.6185  -19.7669   -2.0779 H         1 UNK         0.0600 
     38 H38        -0.1118  -21.0525   -1.1694 H         1 UNK         0.0600 
     39 H39         7.2884  -19.5488   -1.9722 H         1 UNK         0.0600 
     40 H40         7.0197  -19.2892   -3.5721 H         1 UNK         0.0600 
     41 H41         0.0015  -19.0278    0.2341 H         1 UNK         0.0600 
     42 H42         0.9474  -20.3121    0.9238 H         1 UNK         0.0600 
     43 H43         2.2172  -18.3223    1.1837 H         1 UNK         0.0600 
     44 H44         3.0404  -19.2662   -0.0104 H         1 UNK         0.0600 
     45 H45         1.5694  -17.8070   -1.6974 H         1 UNK         0.0600 
     46 H46         1.4197  -16.7045   -0.3725 H         1 UNK         0.0600 
     47 H47         4.5606  -19.2927   -3.3621 H         1 UNK         0.0600 
     48 H48         4.7056  -19.5108   -1.6334 H         1 UNK         0.0600 
     49 H49         3.7536  -21.8962   -4.1569 H         1 UNK         0.0600 
     50 H50         3.7767  -22.9082   -2.7547 H         1 UNK         0.0600 
     51 H51         4.1717  -17.6417   -1.1723 H         1 UNK         0.0600 
     52 H52         3.4173  -16.5724   -2.2528 H         1 UNK         0.0600 
     53 H53         5.9162  -21.4814   -3.4792 H         1 UNK         0.0600 
     54 H54         2.3747  -20.3452   -3.1873 H         1 UNK         0.3000 
     55 H55         4.7599  -15.4281   -0.6005 H         1 UNK         0.3300 
     56 H56         3.1699  -14.9970   -0.5472 H         1 UNK         0.3300 
     57 H57         3.7911  -16.0126    0.6104 H         1 UNK         0.3300 
@<TRIPOS>BOND
     1    1    2 ar   
     2    1    4 ar   
     3    1   28 1    
     4    2    5 ar   
     5    2   29 1    
     6    3    4 ar   
     7    3    6 ar   
     8    3    7 1    
     9    4   11 1    
    10    5    6 ar   
    11    5   26 1    
    12    6   27 1    
    13    7   23 1    
    14    7   24 2    
    15    8   12 1    
    16    8   21 am   BACKBONE|DICT|INTERRES
    17    8   25 2    
    18    9   26 1    
    19    9   27 1    
    20    9   30 1    
    21    9   31 1    
    22   10   13 1    
    23   10   32 1    
    24   10   33 1    
    25   10   34 1    
    26   11   20 1    
    27   11   35 1    
    28   11   36 1    
    29   12   14 1    
    30   12   37 1    
    31   12   38 1    
    32   13   17 1    
    33   13   39 1    
    34   13   40 1    
    35   14   15 1    
    36   14   41 1    
    37   14   42 1    
    38   15   16 1    
    39   15   43 1    
    40   15   44 1    
    41   16   19 1    
    42   16   45 1    
    43   16   46 1    
    44   17   20 1    
    45   17   47 1    
    46   17   48 1    
    47   18   20 1    
    48   18   21 1    
    49   18   49 1    
    50   18   50 1    
    51   19   22 1    
    52   19   51 1    
    53   19   52 1    
    54   20   53 1    
    55   21   54 1    
    56   22   55 1    
    57   22   56 1    
    58   22   57 1    
@<TRIPOS>SUBSTRUCTURE
     1 UNK         1 GROUP             0       ****    0 ROOT    
