@<TRIPOS>MOLECULE
AVX-17542_0
57   58    1
SMALL
USER_CHARGES


@<TRIPOS>ATOM
      1 C1          6.9099  -22.1943   -2.0779 C.ar      1 UNK        -0.1150 
      2 C2          8.0604  -22.9735   -2.3204 C.ar      1 UNK        -0.1150 
      3 C3          6.1903  -23.7388   -0.2962 C.ar      1 UNK        -0.1150 
      4 C4          5.9717  -22.5651   -1.0794 C.ar      1 UNK        -0.1150 
      5 C5          8.2213  -24.1526   -1.5724 C.ar      1 UNK         0.0850 
      6 C6          7.3233  -24.5222   -0.5940 C.ar      1 UNK         0.0850 
      7 C7          5.3035  -24.1160    0.8525 C.2       1 UNK         0.7150 
      8 C8          1.5367  -19.8783    0.3540 C.2       1 UNK         0.5000 
      9 C9          8.9114  -26.0546   -0.6983 C.3       1 UNK         0.2000 
     10 C10         2.2197  -23.1692   -4.4442 C.3       1 UNK        -0.1800 
     11 C11         0.8725  -21.2337   -3.5477 C.3       1 UNK        -0.1800 
     12 C12         4.7690  -21.6548   -0.8553 C.3       1 UNK        -0.0050 
     13 C13         0.9424  -18.5145    0.0065 C.3       1 UNK        -0.1200 
     14 C14         1.9881  -17.4716   -0.4374 C.3       1 UNK        -0.1200 
     15 C15         2.9767  -17.9337   -1.5342 C.3       1 UNK        -0.1200 
     16 C16         3.4131  -21.3992   -2.9917 C.3       1 UNK        -0.1200 
     17 C17         2.2591  -22.0369   -0.7023 C.3       1 UNK         0.0800 
     18 C18         3.8809  -16.8473   -2.1404 C.3       1 UNK         0.1900 
     19 C19         2.2607  -21.7144   -3.9771 C.3       1 UNK        -0.0600 
     20 C20         3.5055  -22.1318   -1.6181 C.3       1 UNK        -0.0600 
     21 N21         1.6941  -20.6982   -0.6889 N.am      1 UNK        -0.5000 
     22 N22         4.2198  -15.7918   -1.1720 N.4       1 UNK        -0.3000 
     23 O23         4.0801  -24.2749    0.6585 O.co2     1 UNK        -0.8000 
     24 O24         5.8214  -24.1736    1.9896 O.co2     1 UNK        -0.8000 
     25 O25         1.8195  -20.1734    1.5134 O.2       1 UNK        -0.5000 
     26 O26         9.2266  -25.0623   -1.6386 O.3       1 UNK        -0.2850 
     27 O27         7.7461  -25.6786   -0.0158 O.3       1 UNK        -0.2850 
     28 H28         6.7565  -21.2932   -2.6539 H         1 UNK         0.1150 
     29 H29         8.7837  -22.6827   -3.0681 H         1 UNK         0.1150 
     30 H30         8.7416  -27.0024   -1.2119 H         1 UNK         0.1000 
     31 H31         9.7323  -26.1728    0.0089 H         1 UNK         0.1000 
     32 H32         1.3477  -23.3613   -5.0707 H         1 UNK         0.0600 
     33 H33         3.0924  -23.3736   -5.0575 H         1 UNK         0.0600 
     34 H34         2.1916  -23.8674   -3.6075 H         1 UNK         0.0600 
     35 H35         0.1891  -21.3777   -4.3720 H         1 UNK         0.0600 
     36 H36         0.4484  -21.8051   -2.7266 H         1 UNK         0.0600 
     37 H37         0.8626  -20.1714   -3.3020 H         1 UNK         0.0600 
     38 H38         4.5821  -21.5833    0.2166 H         1 UNK         0.0600 
     39 H39         5.0302  -20.6356   -1.1400 H         1 UNK         0.0600 
     40 H40         0.2019  -18.6469   -0.7832 H         1 UNK         0.0600 
     41 H41         0.3958  -18.1375    0.8714 H         1 UNK         0.0600 
     42 H42         1.4424  -16.5938   -0.7720 H         1 UNK         0.0600 
     43 H43         2.5564  -17.1461    0.4280 H         1 UNK         0.0600 
     44 H44         3.6230  -18.7044   -1.1182 H         1 UNK         0.0600 
     45 H45         2.4274  -18.4092   -2.3452 H         1 UNK         0.0600 
     46 H46         3.4314  -20.3253   -2.8333 H         1 UNK         0.0600 
     47 H47         4.3416  -21.6044   -3.5237 H         1 UNK         0.0600 
     48 H48         1.4974  -22.7307   -1.0550 H         1 UNK         0.0600 
     49 H49         2.4827  -22.3699    0.3110 H         1 UNK         0.0600 
     50 H50         4.8047  -17.3045   -2.4958 H         1 UNK         0.0600 
     51 H51         3.4197  -16.3913   -3.0172 H         1 UNK         0.0600 
     52 H52         2.4823  -21.1281   -4.8706 H         1 UNK         0.0600 
     53 H53         3.6282  -23.1976   -1.8132 H         1 UNK         0.0600 
     54 H54         1.4205  -20.3394   -1.5923 H         1 UNK         0.3000 
     55 H55         5.1067  -15.3378   -1.4545 H         1 UNK         0.3300 
     56 H56         3.4710  -15.1135   -1.1613 H         1 UNK         0.3300 
     57 H57         4.3540  -16.1685   -0.2448 H         1 UNK         0.3300 
@<TRIPOS>BOND
     1    1    2 ar   
     2    1    4 ar   
     3    1   28 1    
     4    2    5 ar   
     5    2   29 1    
     6    3    4 ar   
     7    3    6 ar   
     8    3    7 1    
     9    4   12 1    
    10    5    6 ar   
    11    5   26 1    
    12    6   27 1    
    13    7   23 1    
    14    7   24 2    
    15    8   13 1    
    16    8   21 am   BACKBONE|DICT|INTERRES
    17    8   25 2    
    18    9   26 1    
    19    9   27 1    
    20    9   30 1    
    21    9   31 1    
    22   10   19 1    
    23   10   32 1    
    24   10   33 1    
    25   10   34 1    
    26   11   19 1    
    27   11   35 1    
    28   11   36 1    
    29   11   37 1    
    30   12   20 1    
    31   12   38 1    
    32   12   39 1    
    33   13   14 1    
    34   13   40 1    
    35   13   41 1    
    36   14   15 1    
    37   14   42 1    
    38   14   43 1    
    39   15   18 1    
    40   15   44 1    
    41   15   45 1    
    42   16   19 1    
    43   16   20 1    
    44   16   46 1    
    45   16   47 1    
    46   17   20 1    
    47   17   21 1    
    48   17   48 1    
    49   17   49 1    
    50   18   22 1    
    51   18   50 1    
    52   18   51 1    
    53   19   52 1    
    54   20   53 1    
    55   21   54 1    
    56   22   55 1    
    57   22   56 1    
    58   22   57 1    
@<TRIPOS>SUBSTRUCTURE
     1 UNK         1 GROUP             0       ****    0 ROOT    
