@<TRIPOS>MOLECULE
AVX-17680_0
57   58    1
SMALL
USER_CHARGES


@<TRIPOS>ATOM
      1 C1          6.2778  -21.3364   -2.3710 C.ar      1 UNK        -0.1150 
      2 C2          7.3765  -22.1738   -2.6447 C.ar      1 UNK        -0.1150 
      3 C3          5.5528  -22.7849   -0.5059 C.ar      1 UNK        -0.1150 
      4 C4          5.3541  -21.6275   -1.3303 C.ar      1 UNK        -0.1150 
      5 C5          7.5138  -23.3319   -1.8719 C.ar      1 UNK         0.0850 
      6 C6          6.6418  -23.6257   -0.8427 C.ar      1 UNK         0.0850 
      7 C7          4.7148  -23.1180    0.7080 C.2       1 UNK         0.7150 
      8 C8          1.0476  -18.9306   -0.0703 C.2       1 UNK         0.5000 
      9 C9          8.1473  -25.2463   -0.9895 C.3       1 UNK         0.2000 
     10 C10         2.0155  -22.8794   -5.2553 C.3       1 UNK        -0.1800 
     11 C11         4.2146  -20.6227   -1.1400 C.3       1 UNK        -0.0050 
     12 C12         0.9473  -17.8539    1.0131 C.3       1 UNK        -0.1200 
     13 C13         1.7983  -21.9687   -4.0426 C.3       1 UNK        -0.1200 
     14 C14         1.5690  -16.4967    0.6269 C.3       1 UNK        -0.1200 
     15 C15         1.3407  -15.4269    1.7327 C.3       1 UNK        -0.1200 
     16 C16         1.8365  -13.9950    1.4226 C.3       1 UNK        -0.1200 
     17 C17         3.0740  -21.7575   -3.2006 C.3       1 UNK        -0.1200 
     18 C18         2.1220  -19.6020   -2.2078 C.3       1 UNK         0.0800 
     19 C19         3.2190  -13.9374    0.7694 C.3       1 UNK         0.1900 
     20 C20         2.8880  -20.9157   -1.9100 C.3       1 UNK        -0.0600 
     21 N21         1.9569  -18.7504   -1.0393 N.am      1 UNK        -0.5000 
     22 N22         4.2195  -14.5734    1.6280 N.4       1 UNK        -0.3000 
     23 O23         5.2589  -23.7734    1.6272 O.co2     1 UNK        -0.8000 
     24 O24         3.5330  -22.7163    0.8019 O.co2     1 UNK        -0.8000 
     25 O25         0.2966  -19.9040   -0.0237 O.2       1 UNK        -0.5000 
     26 O26         8.4624  -24.2986   -1.9723 O.3       1 UNK        -0.2850 
     27 O27         7.0307  -24.7993   -0.2708 O.3       1 UNK        -0.2850 
     28 H28         6.1435  -20.4505   -2.9738 H         1 UNK         0.1150 
     29 H29         8.0720  -21.9487   -3.4379 H         1 UNK         0.1150 
     30 H30         7.9159  -26.2024   -1.4613 H         1 UNK         0.1000 
     31 H31         8.9916  -25.3732   -0.3113 H         1 UNK         0.1000 
     32 H32         1.1246  -22.8977   -5.8844 H         1 UNK         0.0600 
     33 H33         2.8467  -22.5292   -5.8686 H         1 UNK         0.0600 
     34 H34         2.2195  -23.9029   -4.9478 H         1 UNK         0.0600 
     35 H35         4.0168  -20.4573   -0.0813 H         1 UNK         0.0600 
     36 H36         4.5990  -19.6600   -1.4794 H         1 UNK         0.0600 
     37 H37        -0.1086  -17.7166    1.2463 H         1 UNK         0.0600 
     38 H38         1.4185  -18.2348    1.9194 H         1 UNK         0.0600 
     39 H39         1.0026  -22.3763   -3.4186 H         1 UNK         0.0600 
     40 H40         1.4364  -21.0127   -4.4222 H         1 UNK         0.0600 
     41 H41         2.6323  -16.6293    0.4279 H         1 UNK         0.0600 
     42 H42         1.1998  -16.1735   -0.3409 H         1 UNK         0.0600 
     43 H43         0.2832  -15.3771    1.9950 H         1 UNK         0.0600 
     44 H44         1.8083  -15.7706    2.6549 H         1 UNK         0.0600 
     45 H45         1.1297  -13.4579    0.7897 H         1 UNK         0.0600 
     46 H46         1.8522  -13.4286    2.3547 H         1 UNK         0.0600 
     47 H47         3.8206  -21.2817   -3.8309 H         1 UNK         0.0600 
     48 H48         3.4741  -22.7358   -2.9323 H         1 UNK         0.0600 
     49 H49         2.6508  -19.0261   -2.9685 H         1 UNK         0.0600 
     50 H50         1.1289  -19.8013   -2.6122 H         1 UNK         0.0600 
     51 H51         3.2198  -14.4275   -0.2044 H         1 UNK         0.0600 
     52 H52         3.5149  -12.9027    0.5946 H         1 UNK         0.0600 
     53 H53         2.2675  -21.5224   -1.2492 H         1 UNK         0.0600 
     54 H54         2.5090  -17.9051   -1.0161 H         1 UNK         0.3000 
     55 H55         5.1229  -14.5734    1.1124 H         1 UNK         0.3300 
     56 H56         4.3275  -14.0589    2.4866 H         1 UNK         0.3300 
     57 H57         3.9285  -15.5342    1.8642 H         1 UNK         0.3300 
@<TRIPOS>BOND
     1    1    2 ar   
     2    1    4 ar   
     3    1   28 1    
     4    2    5 ar   
     5    2   29 1    
     6    3    4 ar   
     7    3    6 ar   
     8    3    7 1    
     9    4   11 1    
    10    5    6 ar   
    11    5   26 1    
    12    6   27 1    
    13    7   23 1    
    14    7   24 2    
    15    8   12 1    
    16    8   21 am   BACKBONE|DICT|INTERRES
    17    8   25 2    
    18    9   26 1    
    19    9   27 1    
    20    9   30 1    
    21    9   31 1    
    22   10   13 1    
    23   10   32 1    
    24   10   33 1    
    25   10   34 1    
    26   11   20 1    
    27   11   35 1    
    28   11   36 1    
    29   12   14 1    
    30   12   37 1    
    31   12   38 1    
    32   13   17 1    
    33   13   39 1    
    34   13   40 1    
    35   14   15 1    
    36   14   41 1    
    37   14   42 1    
    38   15   16 1    
    39   15   43 1    
    40   15   44 1    
    41   16   19 1    
    42   16   45 1    
    43   16   46 1    
    44   17   20 1    
    45   17   47 1    
    46   17   48 1    
    47   18   20 1    
    48   18   21 1    
    49   18   49 1    
    50   18   50 1    
    51   19   22 1    
    52   19   51 1    
    53   19   52 1    
    54   20   53 1    
    55   21   54 1    
    56   22   55 1    
    57   22   56 1    
    58   22   57 1    
@<TRIPOS>SUBSTRUCTURE
     1 UNK         1 GROUP             0       ****    0 ROOT    
