@<TRIPOS>MOLECULE
AVX-17557_3
59   62    1
SMALL
USER_CHARGES


@<TRIPOS>ATOM
      1 C1          8.6160  -41.5716   -0.8276 C.ar      1 UNK        -0.1150 
      2 C2         10.0111  -41.7382   -1.0003 C.ar      1 UNK        -0.1150 
      3 C3          7.8629  -42.5280   -0.1110 C.ar      1 UNK        -0.1150 
      4 C4         10.6714  -42.8634   -0.4586 C.ar      1 UNK        -0.1150 
      5 C5         11.9660  -45.1995   -2.2360 C.ar      1 UNK        -0.1150 
      6 C6         13.0752  -44.9102   -3.0553 C.ar      1 UNK        -0.1150 
      7 C7         13.4343  -45.9110   -0.3867 C.ar      1 UNK        -0.1150 
      8 C8          8.5366  -43.6412    0.4214 C.ar      1 UNK        -0.1150 
      9 C9          9.9060  -43.8048    0.2519 C.ar      1 UNK        -0.1150 
     10 C10        12.1169  -45.7317   -0.9269 C.ar      1 UNK        -0.1150 
     11 C11        14.3484  -45.1458   -2.5258 C.ar      1 UNK         0.0850 
     12 C12        14.5232  -45.6219   -1.2423 C.ar      1 UNK         0.0850 
     13 C13        13.7092  -46.3550    1.0297 C.2       1 UNK         0.7150 
     14 C14         8.4409  -47.7151    0.5599 C.2       1 UNK         0.5000 
     15 C15         7.9367  -44.7729    1.2116 C.3       1 UNK        -0.0050 
     16 C16        16.5121  -45.2981   -2.1584 C.3       1 UNK         0.2000 
     17 C17        10.3988  -45.0670    0.9069 C.3       1 UNK         0.0550 
     18 C18         9.1670  -45.5812    1.6907 C.3       1 UNK         0.1400 
     19 C19        10.8272  -46.0634   -0.1666 C.3       1 UNK        -0.0050 
     20 C20         8.4043  -49.2339    0.7610 C.3       1 UNK        -0.1200 
     21 C21         9.4342  -49.9934   -0.0958 C.3       1 UNK        -0.1200 
     22 C22        10.8651  -49.8448    0.4402 C.3       1 UNK        -0.1200 
     23 C23        11.8928  -50.6082   -0.4076 C.3       1 UNK        -0.1200 
     24 C24        13.2974  -50.5855    0.2109 C.3       1 UNK         0.1900 
     25 N25         8.9809  -47.0132    1.5697 N.am      1 UNK        -0.5000 
     26 N26        13.4242  -51.5803    1.2894 N.4       1 UNK        -0.3000 
     27 O27        12.7573  -46.7774    1.7227 O.co2     1 UNK        -0.8000 
     28 O28        14.8772  -46.3045    1.4743 O.co2     1 UNK        -0.8000 
     29 O29         8.0168  -47.2119   -0.4797 O.2       1 UNK        -0.5000 
     30 O30        15.5531  -44.9398   -3.1154 O.3       1 UNK        -0.2850 
     31 O31        15.8576  -45.7121   -0.9899 O.3       1 UNK        -0.2850 
     32 H32         8.1235  -40.7068   -1.2470 H         1 UNK         0.1150 
     33 H33        10.5752  -40.9996   -1.5505 H         1 UNK         0.1150 
     34 H34         6.7983  -42.4055    0.0233 H         1 UNK         0.1150 
     35 H35        11.7355  -42.9953   -0.5878 H         1 UNK         0.1150 
     36 H36        10.9772  -45.0224   -2.6316 H         1 UNK         0.1150 
     37 H37        12.9476  -44.5215   -4.0546 H         1 UNK         0.1150 
     38 H38         7.3357  -44.4064    2.0438 H         1 UNK         0.0600 
     39 H39         7.2988  -45.3719    0.5616 H         1 UNK         0.0600 
     40 H40        17.1255  -46.1142   -2.5414 H         1 UNK         0.1000 
     41 H41        17.1472  -44.4401   -1.9363 H         1 UNK         0.1000 
     42 H42        11.2504  -44.8740    1.5593 H         1 UNK         0.0600 
     43 H43         9.3229  -45.3724    2.7491 H         1 UNK         0.0600 
     44 H44        10.9001  -47.0540    0.2834 H         1 UNK         0.0600 
     45 H45        10.0423  -46.1651   -0.9155 H         1 UNK         0.0600 
     46 H46         8.5860  -49.4472    1.8156 H         1 UNK         0.0600 
     47 H47         7.3980  -49.5897    0.5375 H         1 UNK         0.0600 
     48 H48         9.1701  -51.0513   -0.1337 H         1 UNK         0.0600 
     49 H49         9.3995  -49.6306   -1.1238 H         1 UNK         0.0600 
     50 H50        11.1324  -48.7875    0.4673 H         1 UNK         0.0600 
     51 H51        10.9049  -50.2005    1.4706 H         1 UNK         0.0600 
     52 H52        11.5636  -51.6411   -0.5299 H         1 UNK         0.0600 
     53 H53        11.9277  -50.1740   -1.4079 H         1 UNK         0.0600 
     54 H54        14.0502  -50.7957   -0.5498 H         1 UNK         0.0600 
     55 H55        13.5172  -49.5976    0.6173 H         1 UNK         0.0600 
     56 H56         9.2946  -47.5507    2.3647 H         1 UNK         0.3000 
     57 H57        14.3566  -51.5422    1.6760 H         1 UNK         0.3300 
     58 H58        12.7515  -51.3792    2.0157 H         1 UNK         0.3300 
     59 H59        13.2523  -52.5042    0.9190 H         1 UNK         0.3300 
@<TRIPOS>BOND
     1    1    2 ar   
     2    1    3 ar   
     3    1   32 1    
     4    2    4 ar   
     5    2   33 1    
     6    3    8 ar   
     7    3   34 1    
     8    4    9 ar   
     9    4   35 1    
    10    5    6 ar   
    11    5   10 ar   
    12    5   36 1    
    13    6   11 ar   
    14    6   37 1    
    15    7   10 ar   
    16    7   12 ar   
    17    7   13 1    
    18    8    9 ar   
    19    8   15 1    
    20    9   17 1    
    21   10   19 1    
    22   11   12 ar   
    23   11   30 1    
    24   12   31 1    
    25   13   27 1    
    26   13   28 2    
    27   14   20 1    
    28   14   25 am   BACKBONE|DICT|INTERRES
    29   14   29 2    
    30   15   18 1    
    31   15   38 1    
    32   15   39 1    
    33   16   30 1    
    34   16   31 1    
    35   16   40 1    
    36   16   41 1    
    37   17   18 1    
    38   17   19 1    
    39   17   42 1    
    40   18   25 1    
    41   18   43 1    
    42   19   44 1    
    43   19   45 1    
    44   20   21 1    
    45   20   46 1    
    46   20   47 1    
    47   21   22 1    
    48   21   48 1    
    49   21   49 1    
    50   22   23 1    
    51   22   50 1    
    52   22   51 1    
    53   23   24 1    
    54   23   52 1    
    55   23   53 1    
    56   24   26 1    
    57   24   54 1    
    58   24   55 1    
    59   25   56 1    
    60   26   57 1    
    61   26   58 1    
    62   26   59 1    
@<TRIPOS>SUBSTRUCTURE
     1 UNK         1 GROUP             0       ****    0 ROOT    
