@<TRIPOS>MOLECULE
AVX-17260_0
35   38    1
SMALL
USER_CHARGES


@<TRIPOS>ATOM
      1 C1          6.7552  -44.2398    1.9241 C.ar      1 UNK        -0.1150 
      2 C2          6.5983  -42.8324    1.9386 C.ar      1 UNK        -0.1150 
      3 C3          7.7618  -44.8428    1.1372 C.ar      1 UNK        -0.1150 
      4 C4         11.9329  -45.1189   -2.2242 C.ar      1 UNK        -0.1150 
      5 C5          7.4420  -42.0061    1.1626 C.ar      1 UNK        -0.1150 
      6 C6         12.9844  -45.2465   -3.1524 C.ar      1 UNK        -0.1150 
      7 C7         13.4333  -45.7323   -0.3555 C.ar      1 UNK        -0.1150 
      8 C8          8.6044  -44.0040    0.3843 C.ar      1 UNK        -0.1150 
      9 C9         12.1358  -45.3515   -0.8368 C.ar      1 UNK        -0.1150 
     10 C10         8.4393  -42.6243    0.3886 C.ar      1 UNK         0.0850 
     11 C11        14.2480  -45.5946   -2.6621 C.ar      1 UNK         0.0850 
     12 C12        14.4694  -45.8271   -1.3190 C.ar      1 UNK         0.0850 
     13 C13        10.1281  -42.9667   -1.0176 C.2       1 UNK         0.5000 
     14 C14        13.7300  -46.0222    1.1008 C.2       1 UNK         0.7150 
     15 C15        16.3648  -46.0277   -2.4043 C.3       1 UNK         0.2000 
     16 C16         9.7330  -44.3817   -0.5472 C.3       1 UNK         0.0550 
     17 C17        10.9305  -45.1318    0.0796 C.3       1 UNK        -0.0050 
     18 N18         9.3534  -42.0297   -0.4523 N.am      1 UNK        -0.3850 
     19 O19        12.8139  -45.9967    1.9483 O.co2     1 UNK        -0.8000 
     20 O20        11.0514  -42.7355   -1.8017 O.2       1 UNK        -0.5000 
     21 O21        14.8897  -46.2773    1.4852 O.co2     1 UNK        -0.8000 
     22 O22        15.3787  -45.8100   -3.3806 O.3       1 UNK        -0.2850 
     23 O23        15.7641  -46.2152   -1.1473 O.3       1 UNK        -0.2850 
     24 H24         6.0967  -44.8592    2.5178 H         1 UNK         0.1150 
     25 H25         5.8218  -42.3857    2.5441 H         1 UNK         0.1150 
     26 H26         7.8785  -45.9174    1.1177 H         1 UNK         0.1150 
     27 H27        10.9571  -44.8288   -2.5892 H         1 UNK         0.1150 
     28 H28         7.3175  -40.9320    1.1645 H         1 UNK         0.1150 
     29 H29        12.8218  -45.0779   -4.2076 H         1 UNK         0.1150 
     30 H30        16.9806  -46.8893   -2.6667 H         1 UNK         0.1000 
     31 H31        17.0087  -45.1474   -2.3554 H         1 UNK         0.1000 
     32 H32         9.3255  -44.9313   -1.3951 H         1 UNK         0.0600 
     33 H33        11.2568  -44.6234    0.9859 H         1 UNK         0.0600 
     34 H34        10.5800  -46.1020    0.4348 H         1 UNK         0.0600 
     35 H35         9.4416  -41.0370   -0.6198 H         1 UNK         0.3000 
@<TRIPOS>BOND
     1    1    2 ar   
     2    1    3 ar   
     3    1   24 1    
     4    2    5 ar   
     5    2   25 1    
     6    3    8 ar   
     7    3   26 1    
     8    4    6 ar   
     9    4    9 ar   
    10    4   27 1    
    11    5   10 ar   
    12    5   28 1    
    13    6   11 ar   
    14    6   29 1    
    15    7    9 ar   
    16    7   12 ar   
    17    7   14 1    
    18    8   10 ar   
    19    8   16 1    
    20    9   17 1    
    21   10   18 1    
    22   11   12 ar   
    23   11   22 1    
    24   12   23 1    
    25   13   16 1    
    26   13   18 am   BACKBONE|DICT|INTERRES
    27   13   20 2    
    28   14   19 1    
    29   14   21 2    
    30   15   22 1    
    31   15   23 1    
    32   15   30 1    
    33   15   31 1    
    34   16   17 1    
    35   16   32 1    
    36   17   33 1    
    37   17   34 1    
    38   18   35 1    
@<TRIPOS>SUBSTRUCTURE
     1 UNK         1 GROUP             0       ****    0 ROOT    
