@<TRIPOS>MOLECULE
AVX-17631_0
16   17    1
SMALL
USER_CHARGES


@<TRIPOS>ATOM
      1 C1          8.7362  -25.9423   -0.1967 C.ar      1 UNK        -0.1150 
      2 C2          7.4582  -25.5924    0.2996 C.ar      1 UNK        -0.1150 
      3 C3          9.3459  -25.1742   -1.2118 C.ar      1 UNK        -0.1150 
      4 C4          6.7457  -24.5010   -0.2356 C.ar      1 UNK        -0.1150 
      5 C5          8.6542  -24.0520   -1.7168 C.ar      1 UNK        -0.2052 
      6 C6          7.3764  -23.7520   -1.2356 C.ar      1 UNK         0.2822 
      7 C7          9.0204  -23.0492   -2.6336 C.2       1 UNK         0.6580 
      8 N8          8.0349  -22.1734   -2.7725 N.2       1 UNK        -0.4130 
      9 N9         10.2198  -22.9734   -3.3323 N.2       1 UNK        -0.9200 
     10 O10         6.9906  -22.6008   -1.9060 O.3       1 UNK        -0.1220 
     11 H11         9.2562  -26.7953    0.2158 H         1 UNK         0.1150 
     12 H12         7.0198  -26.1734    1.0936 H         1 UNK         0.1150 
     13 H13        10.3292  -25.4277   -1.5721 H         1 UNK         0.1150 
     14 H14         5.7646  -24.2345    0.1287 H         1 UNK         0.1150 
     15 H15        10.3120  -22.3114   -4.0876 H         1 UNK         0.3600 
     16 H16        10.8479  -23.7675   -3.3600 H         1 UNK         0.3600 
@<TRIPOS>BOND
     1    1    2 ar   
     2    1    3 ar   
     3    1   11 1    
     4    2    4 ar   
     5    2   12 1    
     6    3    5 ar   
     7    3   13 1    
     8    4    6 ar   
     9    4   14 1    
    10    5    6 ar   
    11    5    7 1    
    12    6   10 1    
    13    7    8 2    
    14    7    9 1    
    15    8   10 1    
    16    9   15 1    
    17    9   16 1    
@<TRIPOS>SUBSTRUCTURE
     1 UNK         1 GROUP             0       ****    0 ROOT    
