@<TRIPOS>MOLECULE
AVX-17679_0
19   20    1
SMALL
USER_CHARGES


@<TRIPOS>ATOM
      1 C1          9.2605  -24.7590   -1.5755 C.ar      1 UNK        -0.1150 
      2 C2          9.8200  -23.7267   -2.3718 C.ar      1 UNK        -0.1150 
      3 C3          7.9080  -24.7002   -1.1722 C.ar      1 UNK        -0.1150 
      4 C4          9.0407  -22.6232   -2.7718 C.ar      1 UNK        -0.1150 
      5 C5          7.1448  -23.5702   -1.5362 C.ar      1 UNK        -0.2052 
      6 C6          7.7153  -22.5722   -2.3257 C.ar      1 UNK         0.2822 
      7 C7          5.8107  -23.2249   -1.2519 C.2       1 UNK         0.3430 
      8 C8          4.6445  -23.5609    0.8830 C.2       1 UNK         0.7000 
      9 C9          4.7394  -24.0200   -0.5620 C.3       1 UNK        -0.1050 
     10 N10         5.5383  -22.0520   -1.8270 N.2       1 UNK        -0.4130 
     11 O11         5.6157  -23.8267    1.6279 O.co2     1 UNK        -0.8000 
     12 O12         3.5953  -22.9736    1.2279 O.co2     1 UNK        -0.8000 
     13 O13         6.7192  -21.6257   -2.4963 O.3       1 UNK        -0.1220 
     14 H14         9.8690  -25.6032   -1.2856 H         1 UNK         0.1150 
     15 H15        10.8533  -23.7733   -2.6803 H         1 UNK         0.1150 
     16 H16         7.4775  -25.4848   -0.5662 H         1 UNK         0.1150 
     17 H17         9.4541  -21.8363   -3.3769 H         1 UNK         0.1150 
     18 H18         3.7766  -23.9084   -1.0627 H         1 UNK         0.0600 
     19 H19         4.9941  -25.0797   -0.5738 H         1 UNK         0.0600 
@<TRIPOS>BOND
     1    1    2 ar   
     2    1    3 ar   
     3    1   14 1    
     4    2    4 ar   
     5    2   15 1    
     6    3    5 ar   
     7    3   16 1    
     8    4    6 ar   
     9    4   17 1    
    10    5    6 ar   
    11    5    7 1    
    12    6   13 1    
    13    7    9 1    
    14    7   10 2    
    15    8    9 1    
    16    8   11 1    
    17    8   12 2    
    18    9   18 1    
    19    9   19 1    
    20   10   13 1    
@<TRIPOS>SUBSTRUCTURE
     1 UNK         1 GROUP             0       ****    0 ROOT    
