@<TRIPOS>MOLECULE
AVX-17389_0
24   25    1
SMALL
USER_CHARGES


@<TRIPOS>ATOM
      1 C1          8.1401  -22.6400   -2.3730 C.ar      1 UNK        -0.1150 
      2 C2          6.9830  -22.7330   -1.5644 C.ar      1 UNK        -0.1150 
      3 C3          9.1115  -23.6658   -2.3712 C.ar      1 UNK        -0.1150 
      4 C4          6.7923  -23.8426   -0.7021 C.ar      1 UNK        -0.1150 
      5 C5          8.8732  -24.7813   -1.5544 C.ar      1 UNK         0.0850 
      6 C6          7.7549  -24.8713   -0.7504 C.ar      1 UNK         0.0850 
      7 C7          5.7322  -23.8266    0.3582 C.2       1 UNK         0.6150 
      8 C8          2.1568  -23.7399    0.6500 C.2       1 UNK         0.7000 
      9 C9          8.9778  -26.6801   -0.4434 C.3       1 UNK         0.2000 
     10 C10         3.4669  -23.0066    0.9391 C.3       1 UNK        -0.0200 
     11 N11         4.5323  -23.3474   -0.0011 N.am      1 UNK        -0.5000 
     12 O12         1.5279  -24.1740    1.6443 O.co2     1 UNK        -0.8000 
     13 O13         6.0095  -24.1736    1.5067 O.2       1 UNK        -0.5000 
     14 O14         1.7707  -23.7784   -0.5385 O.co2     1 UNK        -0.8000 
     15 O15         9.6678  -25.8582   -1.3423 O.3       1 UNK        -0.2850 
     16 O16         7.8183  -26.0161   -0.0237 O.3       1 UNK        -0.2850 
     17 H17         8.2895  -21.7677   -2.9902 H         1 UNK         0.1150 
     18 H18         6.2884  -21.9047   -1.5504 H         1 UNK         0.1150 
     19 H19        10.0054  -23.5975   -2.9747 H         1 UNK         0.1150 
     20 H20         8.7017  -27.6060   -0.9499 H         1 UNK         0.1000 
     21 H21         9.6061  -26.9124    0.4162 H         1 UNK         0.1000 
     22 H22         3.7686  -23.2147    1.9667 H         1 UNK         0.0600 
     23 H23         3.2825  -21.9341    0.8773 H         1 UNK         0.0600 
     24 H24         4.3409  -23.1684   -0.9763 H         1 UNK         0.3000 
@<TRIPOS>BOND
     1    1    2 ar   
     2    1    3 ar   
     3    1   17 1    
     4    2    4 ar   
     5    2   18 1    
     6    3    5 ar   
     7    3   19 1    
     8    4    6 ar   
     9    4    7 1    
    10    5    6 ar   
    11    5   15 1    
    12    6   16 1    
    13    7   11 am   BACKBONE|DICT|INTERRES
    14    7   13 2    
    15    8   10 1    
    16    8   12 1    
    17    8   14 2    
    18    9   15 1    
    19    9   16 1    
    20    9   20 1    
    21    9   21 1    
    22   10   11 1    
    23   10   22 1    
    24   10   23 1    
    25   11   24 1    
@<TRIPOS>SUBSTRUCTURE
     1 UNK         1 GROUP             0       ****    0 ROOT    
