@<TRIPOS>MOLECULE
AVX-17287_0
34   37    1
SMALL
USER_CHARGES


@<TRIPOS>ATOM
      1 C1          6.8401  -44.0231    2.4531 C.ar      1 UNK        -0.2222 
      2 C2          6.3064  -42.7944    2.0214 C.ar      1 UNK        -0.0888 
      3 C3          8.0730  -44.4790    1.9441 C.ar      1 UNK        -0.2243 
      4 C4         11.7239  -45.0301   -1.9347 C.ar      1 UNK        -0.1150 
      5 C5          7.0135  -42.0152    1.0879 C.ar      1 UNK        -0.3541 
      6 C6         12.6897  -45.0745   -2.9578 C.ar      1 UNK        -0.1150 
      7 C7         10.2273  -42.7699   -0.4578 C.ar      1 UNK        -0.1072 
      8 C8          8.8000  -43.7212    0.9950 C.ar      1 UNK         0.1233 
      9 C9         13.4037  -45.6635   -0.2399 C.ar      1 UNK        -0.1150 
     10 C10        12.0655  -45.2660   -0.5736 C.ar      1 UNK        -0.1150 
     11 C11        10.0492  -43.9003    0.3063 C.ar      1 UNK        -0.1749 
     12 C12         8.2395  -42.4769    0.5876 C.ar      1 UNK         0.2860 
     13 C13        14.0036  -45.3874   -2.5962 C.ar      1 UNK         0.0850 
     14 C14        14.3503  -45.6747   -1.2917 C.ar      1 UNK         0.0850 
     15 C15        13.8273  -46.0888    1.1476 C.2       1 UNK         0.7150 
     16 C16        16.1572  -45.8328   -2.5628 C.3       1 UNK         0.2000 
     17 C17        10.9732  -45.0785    0.4884 C.3       1 UNK         0.0509 
     18 N18         9.1376  -41.9336   -0.3055 N.ar      1 UNK        -0.4786 
     19 O19        14.9997  -45.8757    1.5288 O.co2     1 UNK        -0.8000 
     20 O20        13.0145  -46.6777    1.8933 O.co2     1 UNK        -0.8000 
     21 O21        15.0879  -45.4984   -3.4038 O.3       1 UNK        -0.2850 
     22 O22        15.6783  -45.9734   -1.2529 O.3       1 UNK        -0.2850 
     23 H23         6.3070  -44.6178    3.1811 H         1 UNK         0.1489 
     24 H24         5.3599  -42.4489    2.4112 H         1 UNK         0.1359 
     25 H25         8.4776  -45.4179    2.2938 H         1 UNK         0.1699 
     26 H26        10.7058  -44.7879   -2.2021 H         1 UNK         0.1150 
     27 H27         6.6174  -41.0705    0.7543 H         1 UNK         0.1796 
     28 H28        12.4267  -44.8847   -3.9887 H         1 UNK         0.1150 
     29 H29        11.0496  -42.4917   -1.1009 H         1 UNK         0.1929 
     30 H30        16.6132  -46.7669   -2.8923 H         1 UNK         0.1000 
     31 H31        16.9031  -45.0385   -2.5914 H         1 UNK         0.1000 
     32 H32        11.4148  -44.9494    1.4724 H         1 UNK         0.0600 
     33 H33        10.3994  -46.0030    0.5409 H         1 UNK         0.0600 
     34 H34         9.0457  -41.0457   -0.7762 H         1 UNK         0.3577 
@<TRIPOS>BOND
     1    1    2 ar   
     2    1    3 ar   
     3    1   23 1    
     4    2    5 ar   
     5    2   24 1    
     6    3    8 ar   
     7    3   25 1    
     8    4    6 ar   
     9    4   10 ar   
    10    4   26 1    
    11    5   12 ar   
    12    5   27 1    
    13    6   13 ar   
    14    6   28 1    
    15    7   11 ar   
    16    7   18 ar   
    17    7   29 1    
    18    8   11 ar   
    19    8   12 ar   
    20    9   10 ar   
    21    9   14 ar   
    22    9   15 1    
    23   10   17 1    
    24   11   17 1    
    25   12   18 ar   
    26   13   14 ar   
    27   13   21 1    
    28   14   22 1    
    29   15   19 1    
    30   15   20 2    
    31   16   21 1    
    32   16   22 1    
    33   16   30 1    
    34   16   31 1    
    35   17   32 1    
    36   17   33 1    
    37   18   34 1    
@<TRIPOS>SUBSTRUCTURE
     1 UNK         1 GROUP             0       ****    0 ROOT    
