@<TRIPOS>MOLECULE
AVX-17286_0
33   36    1
SMALL
USER_CHARGES


@<TRIPOS>ATOM
      1 C1         10.3277  -41.6970   -1.2824 C.ar      1 UNK        -0.1150 
      2 C2          9.0156  -41.3907   -0.8518 C.ar      1 UNK        -0.1150 
      3 C3         10.8240  -43.0151   -1.2000 C.ar      1 UNK        -0.1150 
      4 C4         12.4884  -45.4556   -2.5728 C.ar      1 UNK        -0.1150 
      5 C5          8.1655  -42.4087   -0.3692 C.ar      1 UNK        -0.1150 
      6 C6         13.6582  -45.0744   -3.2543 C.ar      1 UNK        -0.1150 
      7 C7          9.9646  -44.0228   -0.7257 C.ar      1 UNK         0.0000 
      8 C8         12.5178  -45.8549   -1.2119 C.ar      1 UNK         0.0000 
      9 C9         13.7641  -45.8965   -0.5049 C.ar      1 UNK        -0.1150 
     10 C10         8.6730  -43.7153   -0.3319 C.ar      1 UNK         0.0850 
     11 C11        14.8622  -45.1222   -2.5599 C.ar      1 UNK         0.0850 
     12 C12        14.9162  -45.5221   -1.2440 C.ar      1 UNK         0.0850 
     13 C13        10.1407  -45.4592   -0.4981 C.2       1 UNK        -0.0567 
     14 C14         8.8488  -45.9496   -0.0180 C.2       1 UNK         0.5567 
     15 C15        11.2206  -46.2544   -0.6409 C.2       1 UNK        -0.1150 
     16 C16        13.8870  -46.3045    0.9536 C.2       1 UNK         0.7150 
     17 C17        16.9685  -45.0701   -1.9566 C.3       1 UNK         0.2000 
     18 N18         8.0372  -44.8850    0.0821 N.am      1 UNK        -0.3850 
     19 O19        12.8829  -46.6726    1.6014 O.co2     1 UNK        -0.8000 
     20 O20         8.5080  -47.1063    0.2200 O.2       1 UNK        -0.5000 
     21 O21        15.0090  -46.2731    1.5097 O.co2     1 UNK        -0.8000 
     22 O22        16.1002  -44.8177   -3.0218 O.3       1 UNK        -0.2850 
     23 O23        16.2160  -45.4741   -0.8523 O.3       1 UNK        -0.2850 
     24 H24        10.9625  -40.9130   -1.6618 H         1 UNK         0.1150 
     25 H25         8.6554  -40.3733   -0.9051 H         1 UNK         0.1150 
     26 H26        11.8400  -43.2223   -1.4904 H         1 UNK         0.1150 
     27 H27        11.5479  -45.4352   -3.1046 H         1 UNK         0.1150 
     28 H28         7.1585  -42.1917   -0.0482 H         1 UNK         0.1150 
     29 H29        13.6438  -44.7710   -4.2879 H         1 UNK         0.1150 
     30 H30        11.1316  -47.3020   -0.3879 H         1 UNK         0.1150 
     31 H31        17.6667  -45.8610   -2.2287 H         1 UNK         0.1000 
     32 H32        17.5176  -44.1662   -1.6977 H         1 UNK         0.1000 
     33 H33         7.0787  -44.9155    0.3926 H         1 UNK         0.3000 
@<TRIPOS>BOND
     1    1    2 ar   
     2    1    3 ar   
     3    1   24 1    
     4    2    5 ar   
     5    2   25 1    
     6    3    7 ar   
     7    3   26 1    
     8    4    6 ar   
     9    4    8 ar   
    10    4   27 1    
    11    5   10 ar   
    12    5   28 1    
    13    6   11 ar   
    14    6   29 1    
    15    7   10 ar   
    16    7   13 1    
    17    8    9 ar   
    18    8   15 1    
    19    9   12 ar   
    20    9   16 1    
    21   10   18 1    
    22   11   12 ar   
    23   11   22 1    
    24   12   23 1    
    25   13   14 1    
    26   13   15 2    
    27   14   18 am   BACKBONE|DICT|INTERRES
    28   14   20 2    
    29   15   30 1    
    30   16   19 1    
    31   16   21 2    
    32   17   22 1    
    33   17   23 1    
    34   17   31 1    
    35   17   32 1    
    36   18   33 1    
@<TRIPOS>SUBSTRUCTURE
     1 UNK         1 GROUP             0       ****    0 ROOT    
