@<TRIPOS>MOLECULE
AVX-17375_3
38   41    1
SMALL
USER_CHARGES


@<TRIPOS>ATOM
      1 C1          9.0114  -41.0012   -0.9398 C.ar      1 UNK        -0.1150 
      2 C2         10.2683  -41.4759   -1.3687 C.ar      1 UNK        -0.1150 
      3 C3          8.2162  -41.7536   -0.0507 C.ar      1 UNK        -0.1150 
      4 C4         10.7773  -42.6862   -0.8519 C.ar      1 UNK        -0.1150 
      5 C5         11.7262  -45.4315   -2.1930 C.ar      1 UNK        -0.1150 
      6 C6         12.8262  -45.1818   -3.0311 C.ar      1 UNK        -0.1150 
      7 C7         13.2233  -45.9732   -0.2959 C.ar      1 UNK        -0.1150 
      8 C8          8.7229  -42.9732    0.4201 C.ar      1 UNK        -0.1150 
      9 C9          9.9898  -43.4213    0.0590 C.ar      1 UNK        -0.1150 
     10 C10        11.8992  -45.8003   -0.8334 C.ar      1 UNK        -0.1150 
     11 C11        14.1045  -45.3734   -2.5065 C.ar      1 UNK         0.0850 
     12 C12        14.2984  -45.7632   -1.1983 C.ar      1 UNK         0.0850 
     13 C13        13.5275  -46.3314    1.1475 C.2       1 UNK         0.7150 
     14 C14         8.0599  -43.8925    1.4048 C.3       1 UNK        -0.0050 
     15 C15        16.2724  -45.5423   -2.1885 C.3       1 UNK         0.2000 
     16 C16        10.3769  -44.6565    0.8531 C.3       1 UNK         0.0550 
     17 C17         9.2397  -44.7467    1.9019 C.3       1 UNK         0.2050 
     18 C18        10.6175  -45.9123   -0.0084 C.3       1 UNK        -0.0050 
     19 O19        14.7109  -46.2748    1.5473 O.co2     1 UNK        -0.8000 
     20 O20        15.2953  -45.2340   -3.1414 O.3       1 UNK        -0.2850 
     21 O21        15.6383  -45.8743   -0.9841 O.3       1 UNK        -0.2850 
     22 O22        12.6219  -46.6744    1.9388 O.co2     1 UNK        -0.8000 
     23 O23         8.8632  -46.0358    2.3430 O.3       1 UNK        -0.6830 
     24 H24         8.6359  -40.0599   -1.3121 H         1 UNK         0.1150 
     25 H25        10.8582  -40.8885   -2.0567 H         1 UNK         0.1150 
     26 H26         7.2534  -41.3970    0.2828 H         1 UNK         0.1150 
     27 H27        11.7732  -43.0062   -1.1180 H         1 UNK         0.1150 
     28 H28        10.7308  -45.2878   -2.5885 H         1 UNK         0.1150 
     29 H29        12.6880  -44.8746   -4.0522 H         1 UNK         0.1150 
     30 H30         7.5682  -43.3490    2.2110 H         1 UNK         0.0600 
     31 H31         7.3175  -44.4972    0.8799 H         1 UNK         0.0600 
     32 H32        16.8719  -46.3850   -2.5350 H         1 UNK         0.1000 
     33 H33        16.9198  -44.6800   -2.0333 H         1 UNK         0.1000 
     34 H34        11.2937  -44.4564    1.4000 H         1 UNK         0.0600 
     35 H35         9.6309  -44.1949    2.7481 H         1 UNK         0.0600 
     36 H36        10.6529  -46.8169    0.5957 H         1 UNK         0.0600 
     37 H37         9.7586  -46.0602   -0.6656 H         1 UNK         0.0600 
     38 H38         9.2424  -46.1600    3.2053 H         1 UNK         0.4180 
@<TRIPOS>BOND
     1    1    2 ar   
     2    1    3 ar   
     3    1   24 1    
     4    2    4 ar   
     5    2   25 1    
     6    3    8 ar   
     7    3   26 1    
     8    4    9 ar   
     9    4   27 1    
    10    5    6 ar   
    11    5   10 ar   
    12    5   28 1    
    13    6   11 ar   
    14    6   29 1    
    15    7   10 ar   
    16    7   12 ar   
    17    7   13 1    
    18    8    9 ar   
    19    8   14 1    
    20    9   16 1    
    21   10   18 1    
    22   11   12 ar   
    23   11   20 1    
    24   12   21 1    
    25   13   19 2    
    26   13   22 1    
    27   14   17 1    
    28   14   30 1    
    29   14   31 1    
    30   15   20 1    
    31   15   21 1    
    32   15   32 1    
    33   15   33 1    
    34   16   17 1    
    35   16   18 1    
    36   16   34 1    
    37   17   23 1    
    38   17   35 1    
    39   18   36 1    
    40   18   37 1    
    41   23   38 1    
@<TRIPOS>SUBSTRUCTURE
     1 UNK         1 GROUP             0       ****    0 ROOT    
