@<TRIPOS>MOLECULE
AVX-15988_0
19   20    1
SMALL
USER_CHARGES


@<TRIPOS>ATOM
      1 C1          8.2794  -25.3610   -0.5577 C.ar      1 UNK        -0.1407 
      2 C2          9.2422  -24.8550   -1.4512 C.ar      1 UNK        -0.3011 
      3 C3          7.7696  -22.9730   -1.9731 C.ar      1 UNK        -0.3497 
      4 C4          6.7901  -23.4497   -1.0722 C.ar      1 UNK         0.6314 
      5 C5          7.0867  -24.6424   -0.3498 C.ar      1 UNK        -0.1027 
      6 C6          9.0011  -23.6481   -2.1399 C.ar      1 UNK         0.3151 
      7 C7          4.9222  -23.5832    0.1386 C.2       1 UNK         0.5158 
      8 C8          7.4997  -21.7074   -2.7669 C.3       1 UNK        -0.0650 
      9 N9          5.5557  -22.8662   -0.7863 N.2       1 UNK        -0.5991 
     10 N10         3.6586  -23.2741    0.6012 N.2       1 UNK        -0.9200 
     11 S11         5.7836  -24.9731    0.7788 S.3       1 UNK        -0.0839 
     12 Cl12       10.2194  -22.9741   -3.1716 Cl        1 UNK        -0.1800 
     13 H13         8.4682  -26.2686   -0.0022 H         1 UNK         0.2050 
     14 H14        10.1820  -25.3720   -1.5719 H         1 UNK         0.1749 
     15 H15         7.6330  -21.9027   -3.8295 H         1 UNK         0.0600 
     16 H16         6.4908  -21.3194   -2.6285 H         1 UNK         0.0600 
     17 H17         8.1995  -20.9310   -2.4656 H         1 UNK         0.0600 
     18 H18         3.1376  -24.0341    1.0140 H         1 UNK         0.3600 
     19 H19         3.1139  -22.6499    0.0237 H         1 UNK         0.3600 
@<TRIPOS>BOND
     1    1    2 ar   
     2    1    5 ar   
     3    1   13 1    
     4    2    6 ar   
     5    2   14 1    
     6    3    4 ar   
     7    3    6 ar   
     8    3    8 1    
     9    4    5 ar   
    10    4    9 1    
    11    5   11 1    
    12    6   12 1    
    13    7    9 2    
    14    7   10 1    
    15    7   11 1    
    16    8   15 1    
    17    8   16 1    
    18    8   17 1    
    19   10   18 1    
    20   10   19 1    
@<TRIPOS>SUBSTRUCTURE
     1 UNK         1 GROUP             0       ****    0 ROOT    
