@<TRIPOS>MOLECULE
AVX-17377_0
35   38    1
SMALL
USER_CHARGES


@<TRIPOS>ATOM
      1 C1          8.6052  -41.6100   -0.4524 C.ar      1 UNK        -0.1150 
      2 C2          9.9918  -41.8779   -0.4979 C.ar      1 UNK        -0.1150 
      3 C3          7.6758  -42.6745   -0.4520 C.ar      1 UNK        -0.1150 
      4 C4         11.9947  -45.4742   -2.1773 C.ar      1 UNK        -0.1150 
      5 C5         10.4696  -43.2014   -0.4526 C.ar      1 UNK        -0.1150 
      6 C6         13.0606  -45.0778   -3.0059 C.ar      1 UNK        -0.1150 
      7 C7         13.5464  -46.0157   -0.3275 C.ar      1 UNK        -0.1150 
      8 C8          8.1694  -43.9849   -0.4893 C.ar      1 UNK        -0.1150 
      9 C9         12.2109  -45.9175   -0.8405 C.ar      1 UNK        -0.1150 
     10 C10         9.5264  -44.2433   -0.4281 C.ar      1 UNK        -0.0383 
     11 C11        14.3529  -45.1727   -2.4868 C.ar      1 UNK         0.0850 
     12 C12        14.5889  -45.6320   -1.2072 C.ar      1 UNK         0.0850 
     13 C13         8.5450  -46.2673   -0.4316 C.2       1 UNK         0.5000 
     14 C14        13.8729  -46.4819    1.0807 C.2       1 UNK         0.7150 
     15 C15         7.4014  -45.2674   -0.6057 C.3       1 UNK        -0.0050 
     16 C16        16.5261  -45.1609   -2.1741 C.3       1 UNK         0.2000 
     17 C17        10.9955  -46.2377    0.0342 C.3       1 UNK         0.0650 
     18 N18         9.7290  -45.6311   -0.3550 N.am      1 UNK        -0.0317 
     19 O19        13.0194  -47.0764    1.7763 O.co2     1 UNK        -0.8000 
     20 O20         8.3508  -47.4814   -0.3764 O.2       1 UNK        -0.5000 
     21 O21        15.0158  -46.2720    1.5419 O.co2     1 UNK        -0.8000 
     22 O22        15.5221  -44.8682   -3.1029 O.3       1 UNK        -0.2850 
     23 O23        15.9316  -45.6264   -0.9955 O.3       1 UNK        -0.2850 
     24 H24         8.2534  -40.5887   -0.4593 H         1 UNK         0.1150 
     25 H25        10.7034  -41.0750   -0.5647 H         1 UNK         0.1150 
     26 H26         6.6130  -42.4932   -0.4523 H         1 UNK         0.1150 
     27 H27        10.9948  -45.4118   -2.5807 H         1 UNK         0.1150 
     28 H28        11.5313  -43.3920   -0.4533 H         1 UNK         0.1150 
     29 H29        12.8919  -44.7290   -4.0123 H         1 UNK         0.1150 
     30 H30         6.6199  -45.3734    0.1469 H         1 UNK         0.0600 
     31 H31         7.0153  -45.3651   -1.6175 H         1 UNK         0.0600 
     32 H32        17.1862  -45.9294   -2.5778 H         1 UNK         0.1000 
     33 H33        17.1020  -44.2627   -1.9559 H         1 UNK         0.1000 
     34 H34        10.9052  -47.3216    0.1255 H         1 UNK         0.0600 
     35 H35        11.1511  -45.8412    1.0366 H         1 UNK         0.0600 
@<TRIPOS>BOND
     1    1    2 ar   
     2    1    3 ar   
     3    1   24 1    
     4    2    5 ar   
     5    2   25 1    
     6    3    8 ar   
     7    3   26 1    
     8    4    6 ar   
     9    4    9 ar   
    10    4   27 1    
    11    5   10 ar   
    12    5   28 1    
    13    6   11 ar   
    14    6   29 1    
    15    7    9 ar   
    16    7   12 ar   
    17    7   14 1    
    18    8   10 ar   
    19    8   15 1    
    20    9   17 1    
    21   10   18 1    
    22   11   12 ar   
    23   11   22 1    
    24   12   23 1    
    25   13   15 1    
    26   13   18 am   BACKBONE|DICT|INTERRES
    27   13   20 2    
    28   14   19 1    
    29   14   21 2    
    30   15   30 1    
    31   15   31 1    
    32   16   22 1    
    33   16   23 1    
    34   16   32 1    
    35   16   33 1    
    36   17   18 1    
    37   17   34 1    
    38   17   35 1    
@<TRIPOS>SUBSTRUCTURE
     1 UNK         1 GROUP             0       ****    0 ROOT    
