@<TRIPOS>MOLECULE
AVX-17379_0
32   33    1
SMALL
USER_CHARGES


@<TRIPOS>ATOM
      1 C1          6.2198  -20.0754   -2.3721 C.ar      1 UNK        -0.1150 
      2 C2          5.4777  -21.2417   -2.1344 C.ar      1 UNK        -0.1150 
      3 C3          5.5825  -18.8176   -2.3969 C.ar      1 UNK        -0.1150 
      4 C4          4.0905  -21.1495   -1.9421 C.ar      1 UNK        -0.1150 
      5 C5         -0.0250  -19.8672   -1.0028 C.ar      1 UNK        -0.3200 
      6 C6          4.1861  -18.7090   -2.2158 C.ar      1 UNK        -0.1150 
      7 C7          3.4347  -19.8991   -1.9848 C.ar      1 UNK         0.0731 
      8 C8          0.0412  -20.5851   -2.2302 C.ar      1 UNK         0.2230 
      9 C9          1.2621  -19.4841   -0.7510 C.ar      1 UNK         0.0560 
     10 C10         1.8198  -18.7871    0.4484 C.3       1 UNK        -0.0650 
     11 C11         3.5336  -17.3330   -2.3473 C.3       1 UNK         0.3050 
     12 C12        -1.0977  -21.3016   -2.9243 C.3       1 UNK         0.2343 
     13 N13         1.2736  -20.5992   -2.7178 N.ar      1 UNK        -0.5310 
     14 N14         2.0291  -19.9256   -1.8180 N.ar      1 UNK         0.1189 
     15 N15         4.2198  -16.2571   -1.5940 N.4       1 UNK        -0.3000 
     16 O16        -0.7114  -22.1734   -3.9720 O.3       1 UNK        -0.6333 
     17 H17         7.2876  -20.1442   -2.5235 H         1 UNK         0.1150 
     18 H18         5.9679  -22.2039   -2.1094 H         1 UNK         0.1150 
     19 H19         6.1784  -17.9368   -2.5903 H         1 UNK         0.1150 
     20 H20         3.5186  -22.0509   -1.7744 H         1 UNK         0.1150 
     21 H21        -0.8865  -19.7000   -0.3739 H         1 UNK         0.1500 
     22 H22         1.0471  -18.2111    0.9575 H         1 UNK         0.0600 
     23 H23         2.2198  -19.5082    1.1605 H         1 UNK         0.0600 
     24 H24         2.6198  -18.0975    0.1909 H         1 UNK         0.0600 
     25 H25         3.4723  -17.0515   -3.3989 H         1 UNK         0.0600 
     26 H26         2.5133  -17.3734   -1.9721 H         1 UNK         0.0600 
     27 H27        -1.6554  -21.8882   -2.1944 H         1 UNK         0.0480 
     28 H28        -1.7982  -20.5734   -3.3342 H         1 UNK         0.0480 
     29 H29         3.6183  -15.4421   -1.6409 H         1 UNK         0.3300 
     30 H30         4.3374  -16.5071   -0.6234 H         1 UNK         0.3300 
     31 H31        -0.5802  -21.6087   -4.7390 H         1 UNK         0.4180 
     32 H32         5.1289  -15.9872   -1.9720 H         1 UNK         0.3300 
@<TRIPOS>BOND
     1    1    2 ar   
     2    1    3 ar   
     3    1   17 1    
     4    2    4 ar   
     5    2   18 1    
     6    3    6 ar   
     7    3   19 1    
     8    4    7 ar   
     9    4   20 1    
    10    5    8 ar   
    11    5    9 ar   
    12    5   21 1    
    13    6    7 ar   
    14    6   11 1    
    15    7   14 1    
    16    8   12 1    
    17    8   13 ar   
    18    9   10 1    
    19    9   14 ar   
    20   10   22 1    
    21   10   23 1    
    22   10   24 1    
    23   11   15 1    
    24   11   25 1    
    25   11   26 1    
    26   12   16 1    
    27   12   27 1    
    28   12   28 1    
    29   13   14 ar   
    30   15   29 1    
    31   15   30 1    
    32   15   32 1    
    33   16   31 1    
@<TRIPOS>SUBSTRUCTURE
     1 UNK         1 GROUP             0       ****    0 ROOT    
