@<TRIPOS>MOLECULE
AVX-17558_3
53   56    1
SMALL
USER_CHARGES


@<TRIPOS>ATOM
      1 C1          7.8285  -41.8608    0.2053 C.ar      1 UNK        -0.1150 
      2 C2          7.6157  -43.2384    0.4520 C.ar      1 UNK        -0.1150 
      3 C3          8.9520  -41.4300   -0.5348 C.ar      1 UNK        -0.1150 
      4 C4          8.5236  -44.2033   -0.0381 C.ar      1 UNK        -0.1150 
      5 C5         10.9096  -47.5526   -0.9613 C.ar      1 UNK        -0.1150 
      6 C6         11.0996  -48.9414   -1.1048 C.ar      1 UNK        -0.1150 
      7 C7         13.2070  -47.2602   -0.1142 C.ar      1 UNK        -0.1150 
      8 C8          9.8447  -42.4042   -1.0151 C.ar      1 UNK        -0.1150 
      9 C9          9.6359  -43.7564   -0.7729 C.ar      1 UNK        -0.1150 
     10 C10        11.9236  -46.7057   -0.4375 C.ar      1 UNK        -0.1150 
     11 C11        12.3407  -49.4661   -0.7295 C.ar      1 UNK         0.0850 
     12 C12        13.3563  -48.6595   -0.2579 C.ar      1 UNK         0.0850 
     13 C13        14.3903  -46.4364    0.3331 C.2       1 UNK         0.7150 
     14 C14        13.7567  -44.7291   -2.6533 C.2       1 UNK         0.5000 
     15 C15        11.0962  -42.1717   -1.8181 C.3       1 UNK        -0.0050 
     16 C16        14.0826  -50.7491   -0.3305 C.3       1 UNK         0.2000 
     17 C17        10.7206  -44.6029   -1.3827 C.3       1 UNK         0.0550 
     18 C18        11.5462  -43.5969   -2.2211 C.3       1 UNK         0.1400 
     19 C19        11.5654  -45.2236   -0.2738 C.3       1 UNK        -0.0050 
     20 C20        15.1675  -44.2664   -3.0326 C.3       1 UNK        -0.1200 
     21 C21        15.5608  -44.6167   -4.4799 C.3       1 UNK        -0.1200 
     22 C22        16.3418  -45.9342   -4.5696 C.3       1 UNK         0.1900 
     23 N23        12.9756  -43.7940   -2.0885 N.am      1 UNK        -0.5000 
     24 N24        17.6306  -45.7463   -5.2570 N.4       1 UNK        -0.3000 
     25 O25        15.1171  -45.9072   -0.5366 O.co2     1 UNK        -0.8000 
     26 O26        14.6105  -46.2904    1.5556 O.co2     1 UNK        -0.8000 
     27 O27        13.3932  -45.8806   -2.8887 O.2       1 UNK        -0.5000 
     28 O28        12.7561  -50.7568   -0.7823 O.3       1 UNK        -0.2850 
     29 O29        14.4493  -49.4333   -0.0156 O.3       1 UNK        -0.2850 
     30 H30         7.1267  -41.1334    0.5858 H         1 UNK         0.1150 
     31 H31         6.7528  -43.5543    1.0194 H         1 UNK         0.1150 
     32 H32         9.1189  -40.3802   -0.7255 H         1 UNK         0.1150 
     33 H33         8.3659  -45.2554    0.1477 H         1 UNK         0.1150 
     34 H34         9.9562  -47.1339   -1.2468 H         1 UNK         0.1150 
     35 H35        10.3172  -49.5775   -1.4906 H         1 UNK         0.1150 
     36 H36        10.9043  -41.5401   -2.6856 H         1 UNK         0.0600 
     37 H37        11.8435  -41.6831   -1.1930 H         1 UNK         0.0600 
     38 H38        14.1714  -51.3750    0.5580 H         1 UNK         0.1000 
     39 H39        14.7387  -51.1335   -1.1120 H         1 UNK         0.1000 
     40 H40        10.3072  -45.4056   -1.9932 H         1 UNK         0.0600 
     41 H41        11.3038  -43.7479   -3.2731 H         1 UNK         0.0600 
     42 H42        12.4714  -44.6297   -0.1495 H         1 UNK         0.0600 
     43 H43        11.0502  -45.1325    0.6820 H         1 UNK         0.0600 
     44 H44        15.2261  -43.1856   -2.8936 H         1 UNK         0.0600 
     45 H45        15.8769  -44.7121   -2.3345 H         1 UNK         0.0600 
     46 H46        14.6623  -44.6853   -5.0954 H         1 UNK         0.0600 
     47 H47        16.1643  -43.8119   -4.9021 H         1 UNK         0.0600 
     48 H48        16.5321  -46.3305   -3.5715 H         1 UNK         0.0600 
     49 H49        15.7615  -46.6835   -5.1092 H         1 UNK         0.0600 
     50 H50        13.4389  -43.1391   -1.4754 H         1 UNK         0.3000 
     51 H51        18.1220  -46.6278   -5.3008 H         1 UNK         0.3300 
     52 H52        17.4674  -45.4063   -6.1941 H         1 UNK         0.3300 
     53 H53        18.1899  -45.0755   -4.7495 H         1 UNK         0.3300 
@<TRIPOS>BOND
     1    1    2 ar   
     2    1    3 ar   
     3    1   30 1    
     4    2    4 ar   
     5    2   31 1    
     6    3    8 ar   
     7    3   32 1    
     8    4    9 ar   
     9    4   33 1    
    10    5    6 ar   
    11    5   10 ar   
    12    5   34 1    
    13    6   11 ar   
    14    6   35 1    
    15    7   10 ar   
    16    7   12 ar   
    17    7   13 1    
    18    8    9 ar   
    19    8   15 1    
    20    9   17 1    
    21   10   19 1    
    22   11   12 ar   
    23   11   28 1    
    24   12   29 1    
    25   13   25 1    
    26   13   26 2    
    27   14   20 1    
    28   14   23 am   BACKBONE|DICT|INTERRES
    29   14   27 2    
    30   15   18 1    
    31   15   36 1    
    32   15   37 1    
    33   16   28 1    
    34   16   29 1    
    35   16   38 1    
    36   16   39 1    
    37   17   18 1    
    38   17   19 1    
    39   17   40 1    
    40   18   23 1    
    41   18   41 1    
    42   19   42 1    
    43   19   43 1    
    44   20   21 1    
    45   20   44 1    
    46   20   45 1    
    47   21   22 1    
    48   21   46 1    
    49   21   47 1    
    50   22   24 1    
    51   22   48 1    
    52   22   49 1    
    53   23   50 1    
    54   24   51 1    
    55   24   52 1    
    56   24   53 1    
@<TRIPOS>SUBSTRUCTURE
     1 UNK         1 GROUP             0       ****    0 ROOT    
