@<TRIPOS>MOLECULE
AVX-17285_0
30   32    1
SMALL
USER_CHARGES


@<TRIPOS>ATOM
      1 C1          7.9542  -46.3415    0.8611 C.ar      1 UNK        -0.1150 
      2 C2          6.8642  -45.8159    1.5970 C.ar      1 UNK        -0.1150 
      3 C3         13.0003  -44.7869   -3.0384 C.ar      1 UNK        -0.1150 
      4 C4          8.8214  -45.4869    0.1431 C.ar      1 UNK        -0.1150 
      5 C5         11.9377  -43.9092   -2.7561 C.ar      1 UNK        -0.1150 
      6 C6         13.5444  -45.5876   -2.0190 C.ar      1 UNK        -0.1150 
      7 C7          6.6184  -44.4252    1.6200 C.ar      1 UNK        -0.1150 
      8 C8         11.9173  -44.6847   -0.4523 C.ar      1 UNK        -0.1150 
      9 C9          8.5833  -44.0993    0.1950 C.ar      1 UNK         0.0000 
     10 C10        11.3964  -43.8409   -1.4579 C.ar      1 UNK         0.0000 
     11 C11        13.0114  -45.5396   -0.7128 C.ar      1 UNK        -0.1150 
     12 C12         7.4979  -43.6006    0.9007 C.ar      1 UNK         0.0850 
     13 C13         9.2534  -42.9466   -0.4144 C.2       1 UNK        -0.0567 
     14 C14         8.4464  -41.7815   -0.0523 C.2       1 UNK         0.5567 
     15 C15        10.3707  -42.8307   -1.1640 C.2       1 UNK        -0.1150 
     16 C16        13.6303  -46.3549    0.3892 C.2       1 UNK         0.7150 
     17 N17         7.4501  -42.2157    0.7354 N.am      1 UNK        -0.3850 
     18 O18        13.1659  -46.2755    1.5482 O.co2     1 UNK        -0.8000 
     19 O19         8.6157  -40.6086   -0.3804 O.2       1 UNK        -0.5000 
     20 O20        14.6160  -47.0743    0.1172 O.co2     1 UNK        -0.8000 
     21 H21         8.1254  -47.4080    0.8486 H         1 UNK         0.1150 
     22 H22         6.2116  -46.4849    2.1384 H         1 UNK         0.1150 
     23 H23        13.4163  -44.8248   -4.0351 H         1 UNK         0.1150 
     24 H24         9.6342  -45.9039   -0.4299 H         1 UNK         0.1150 
     25 H25        11.5557  -43.2694   -3.5378 H         1 UNK         0.1150 
     26 H26        14.3841  -46.2302   -2.2378 H         1 UNK         0.1150 
     27 H27         5.7813  -44.0151    2.1654 H         1 UNK         0.1150 
     28 H28        11.5102  -44.6435    0.5479 H         1 UNK         0.1150 
     29 H29        10.6393  -41.8378   -1.4987 H         1 UNK         0.1150 
     30 H30         6.7340  -41.6347    1.1448 H         1 UNK         0.3000 
@<TRIPOS>BOND
     1    1    2 ar   
     2    1    4 ar   
     3    1   21 1    
     4    2    7 ar   
     5    2   22 1    
     6    3    5 ar   
     7    3    6 ar   
     8    3   23 1    
     9    4    9 ar   
    10    4   24 1    
    11    5   10 ar   
    12    5   25 1    
    13    6   11 ar   
    14    6   26 1    
    15    7   12 ar   
    16    7   27 1    
    17    8   10 ar   
    18    8   11 ar   
    19    8   28 1    
    20    9   12 ar   
    21    9   13 1    
    22   10   15 1    
    23   11   16 1    
    24   12   17 1    
    25   13   14 1    
    26   13   15 2    
    27   14   17 am   BACKBONE|DICT|INTERRES
    28   14   19 2    
    29   15   29 1    
    30   16   18 1    
    31   16   20 2    
    32   17   30 1    
@<TRIPOS>SUBSTRUCTURE
     1 UNK         1 GROUP             0       ****    0 ROOT    
