@<TRIPOS>MOLECULE
AVX-17257_0
32   34    1
SMALL
USER_CHARGES


@<TRIPOS>ATOM
      1 C1         13.6817  -45.0791   -2.6231 C.ar      1 UNK        -0.1150 
      2 C2          7.8145  -41.8742    0.3103 C.ar      1 UNK        -0.1150 
      3 C3         12.3103  -45.0742   -2.9119 C.ar      1 UNK        -0.1150 
      4 C4          9.2232  -41.9764    0.3476 C.ar      1 UNK        -0.1150 
      5 C5         14.1201  -45.4837   -1.3511 C.ar      1 UNK        -0.1150 
      6 C6          7.0129  -43.0298    0.1679 C.ar      1 UNK        -0.1150 
      7 C7         11.3855  -45.4590   -1.9300 C.ar      1 UNK        -0.1150 
      8 C8          9.8457  -43.2410    0.3029 C.ar      1 UNK        -0.1150 
      9 C9         13.2074  -45.8743   -0.3384 C.ar      1 UNK        -0.1150 
     10 C10         7.6514  -44.2763    0.0795 C.ar      1 UNK        -0.1150 
     11 C11        11.8084  -45.8399   -0.6324 C.ar      1 UNK        -0.1150 
     12 C12         9.0272  -44.3770    0.1838 C.ar      1 UNK        -0.0383 
     13 C13         8.3119  -46.4976   -0.0473 C.2       1 UNK         0.5000 
     14 C14        13.7759  -46.3025    1.0005 C.2       1 UNK         0.7150 
     15 C15         7.0440  -45.6406   -0.1189 C.3       1 UNK        -0.0050 
     16 C16        10.7508  -46.1887    0.4189 C.3       1 UNK         0.0650 
     17 N17         9.3975  -45.7279    0.1439 N.am      1 UNK        -0.0317 
     18 O18        15.0158  -46.2743    1.1486 O.co2     1 UNK        -0.8000 
     19 O19         8.2911  -47.7217   -0.1699 O.2       1 UNK        -0.5000 
     20 O20        13.0379  -46.6837    1.9364 O.co2     1 UNK        -0.8000 
     21 H21        14.3950  -44.7786   -3.3769 H         1 UNK         0.1150 
     22 H22         7.3481  -40.9017    0.3716 H         1 UNK         0.1150 
     23 H23        11.9622  -44.7739   -3.8889 H         1 UNK         0.1150 
     24 H24         9.8210  -41.0841    0.4417 H         1 UNK         0.1150 
     25 H25        15.1823  -45.4818   -1.1550 H         1 UNK         0.1150 
     26 H26         5.9372  -42.9533    0.1221 H         1 UNK         0.1150 
     27 H27        10.3386  -45.4406   -2.1923 H         1 UNK         0.1150 
     28 H28        10.9191  -43.3332    0.3474 H         1 UNK         0.1150 
     29 H29         6.3235  -45.8983    0.6581 H         1 UNK         0.0600 
     30 H30         6.6159  -45.7510   -1.1113 H         1 UNK         0.0600 
     31 H31        10.7710  -47.2637    0.6050 H         1 UNK         0.0600 
     32 H32        10.9940  -45.6974    1.3598 H         1 UNK         0.0600 
@<TRIPOS>BOND
     1    1    3 ar   
     2    1    5 ar   
     3    1   21 1    
     4    2    4 ar   
     5    2    6 ar   
     6    2   22 1    
     7    3    7 ar   
     8    3   23 1    
     9    4    8 ar   
    10    4   24 1    
    11    5    9 ar   
    12    5   25 1    
    13    6   10 ar   
    14    6   26 1    
    15    7   11 ar   
    16    7   27 1    
    17    8   12 ar   
    18    8   28 1    
    19    9   11 ar   
    20    9   14 1    
    21   10   12 ar   
    22   10   15 1    
    23   11   16 1    
    24   12   17 1    
    25   13   15 1    
    26   13   17 am   BACKBONE|DICT|INTERRES
    27   13   19 2    
    28   14   18 1    
    29   14   20 2    
    30   15   29 1    
    31   15   30 1    
    32   16   17 1    
    33   16   31 1    
    34   16   32 1    
@<TRIPOS>SUBSTRUCTURE
     1 UNK         1 GROUP             0       ****    0 ROOT    
