@<TRIPOS>MOLECULE
AVX-17560_0
54   55    1
SMALL
USER_CHARGES


@<TRIPOS>ATOM
      1 C1          7.6291  -22.5688   -2.2689 C.ar      1 UNK        -0.1150 
      2 C2          8.7356  -23.4411   -2.3720 C.ar      1 UNK        -0.1150 
      3 C3          6.6394  -23.9732   -0.5130 C.ar      1 UNK        -0.1150 
      4 C4          6.5867  -22.8055   -1.3322 C.ar      1 UNK        -0.1150 
      5 C5          8.7137  -24.6134   -1.6031 C.ar      1 UNK         0.0850 
      6 C6          7.6947  -24.8779   -0.7188 C.ar      1 UNK         0.0850 
      7 C7          5.7145  -24.2097    0.6352 C.2       1 UNK         0.7150 
      8 C8          2.1335  -19.7048    0.4115 C.2       1 UNK         0.5000 
      9 C9          9.1033  -26.5702   -0.6699 C.3       1 UNK         0.2000 
     10 C10         1.1795  -21.4146   -3.3291 C.3       1 UNK        -0.1800 
     11 C11         2.6155  -22.0841   -5.2477 C.3       1 UNK        -0.1800 
     12 C12         5.5093  -21.7345   -1.1564 C.3       1 UNK        -0.0050 
     13 C13         1.7817  -18.2541    0.0711 C.3       1 UNK        -0.1200 
     14 C14         2.0879  -17.8113   -1.3750 C.3       1 UNK        -0.1200 
     15 C15         3.7430  -21.5620   -3.0122 C.3       1 UNK        -0.1200 
     16 C16         3.0560  -21.8246   -0.5176 C.3       1 UNK         0.0800 
     17 C17         3.5432  -17.4455   -1.7712 C.3       1 UNK         0.1900 
     18 C18         2.4843  -22.1374   -3.7159 C.3       1 UNK        -0.0600 
     19 C19         4.0870  -22.1567   -1.6185 C.3       1 UNK        -0.0600 
     20 N20         2.7495  -20.4091   -0.5397 N.am      1 UNK        -0.5000 
     21 N21         3.9979  -16.1734   -1.1717 N.4       1 UNK        -0.3000 
     22 O22         6.2192  -24.1734    1.7762 O.co2     1 UNK        -0.8000 
     23 O23         4.4997  -24.4073    0.4303 O.co2     1 UNK        -0.8000 
     24 O24         1.8196  -20.1734    1.5045 O.2       1 UNK        -0.5000 
     25 O25         9.6206  -25.6184   -1.5599 O.3       1 UNK        -0.2850 
     26 O26         7.9361  -26.0607   -0.0958 O.3       1 UNK        -0.2850 
     27 H27         7.6169  -21.6723   -2.8704 H         1 UNK         0.1150 
     28 H28         9.5476  -23.2376   -3.0553 H         1 UNK         0.1150 
     29 H29         8.8720  -27.4891   -1.2109 H         1 UNK         0.1000 
     30 H30         9.8202  -26.7879    0.1185 H         1 UNK         0.1000 
     31 H31         0.3330  -21.8224   -3.8824 H         1 UNK         0.0600 
     32 H32         0.9340  -21.5086   -2.2753 H         1 UNK         0.0600 
     33 H33         1.2313  -20.3520   -3.5680 H         1 UNK         0.0600 
     34 H34         1.7741  -22.5853   -5.7272 H         1 UNK         0.0600 
     35 H35         2.6194  -21.0541   -5.6086 H         1 UNK         0.0600 
     36 H36         3.5240  -22.5732   -5.5944 H         1 UNK         0.0600 
     37 H37         5.5087  -21.4667   -0.0991 H         1 UNK         0.0600 
     38 H38         5.8110  -20.8155   -1.6615 H         1 UNK         0.0600 
     39 H39         0.7051  -18.1684    0.2242 H         1 UNK         0.0600 
     40 H40         2.2199  -17.5676    0.7852 H         1 UNK         0.0600 
     41 H41         1.7292  -18.5822   -2.0537 H         1 UNK         0.0600 
     42 H42         1.4337  -16.9735   -1.5721 H         1 UNK         0.0600 
     43 H43         3.6954  -20.4731   -2.9898 H         1 UNK         0.0600 
     44 H44         4.6118  -21.7733   -3.6273 H         1 UNK         0.0600 
     45 H45         2.1437  -22.4011   -0.6688 H         1 UNK         0.0600 
     46 H46         3.4222  -22.1064    0.4696 H         1 UNK         0.0600 
     47 H47         4.2453  -18.2527   -1.5667 H         1 UNK         0.0600 
     48 H48         3.5707  -17.3051   -2.8533 H         1 UNK         0.0600 
     49 H49         2.3916  -23.1895   -3.4409 H         1 UNK         0.0600 
     50 H50         4.0770  -23.2398   -1.7227 H         1 UNK         0.0600 
     51 H51         2.9410  -19.9361   -1.4098 H         1 UNK         0.3000 
     52 H52         3.2986  -15.4779   -1.4249 H         1 UNK         0.3300 
     53 H53         4.0494  -16.2350   -0.1633 H         1 UNK         0.3300 
     54 H54         4.9025  -15.8690   -1.5303 H         1 UNK         0.3300 
@<TRIPOS>BOND
     1    1    2 ar   
     2    1    4 ar   
     3    1   27 1    
     4    2    5 ar   
     5    2   28 1    
     6    3    4 ar   
     7    3    6 ar   
     8    3    7 1    
     9    4   12 1    
    10    5    6 ar   
    11    5   25 1    
    12    6   26 1    
    13    7   22 1    
    14    7   23 2    
    15    8   13 1    
    16    8   20 am   BACKBONE|DICT|INTERRES
    17    8   24 2    
    18    9   25 1    
    19    9   26 1    
    20    9   29 1    
    21    9   30 1    
    22   10   18 1    
    23   10   31 1    
    24   10   32 1    
    25   10   33 1    
    26   11   18 1    
    27   11   34 1    
    28   11   35 1    
    29   11   36 1    
    30   12   19 1    
    31   12   37 1    
    32   12   38 1    
    33   13   14 1    
    34   13   39 1    
    35   13   40 1    
    36   14   17 1    
    37   14   41 1    
    38   14   42 1    
    39   15   18 1    
    40   15   19 1    
    41   15   43 1    
    42   15   44 1    
    43   16   19 1    
    44   16   20 1    
    45   16   45 1    
    46   16   46 1    
    47   17   21 1    
    48   17   47 1    
    49   17   48 1    
    50   18   49 1    
    51   19   50 1    
    52   20   51 1    
    53   21   52 1    
    54   21   53 1    
    55   21   54 1    
@<TRIPOS>SUBSTRUCTURE
     1 UNK         1 GROUP             0       ****    0 ROOT    
