@<TRIPOS>MOLECULE
AVX101118_0
65   68    1
SMALL
USER_CHARGES


@<TRIPOS>ATOM
      1 C1          9.0123  -40.9956   -0.8428 C.ar      1 UNK        -0.1150 
      2 C2          9.7644  -41.8923   -1.6192 C.ar      1 UNK        -0.1150 
      3 C3          8.1754  -41.4841    0.1763 C.ar      1 UNK        -0.1150 
      4 C4          9.6795  -43.2736   -1.3710 C.ar      1 UNK        -0.1150 
      5 C5         11.2579  -45.7277   -1.6024 C.ar      1 UNK        -0.1150 
      6 C6         12.1140  -45.2420   -2.5954 C.ar      1 UNK        -0.1150 
      7 C7          8.0626  -42.8708    0.4251 C.ar      1 UNK        -0.1150 
      8 C8         13.1838  -46.1025   -0.1355 C.ar      1 UNK        -0.1150 
      9 C9          8.8350  -43.7816   -0.3578 C.ar      1 UNK        -0.1150 
     10 C10        11.7743  -46.1593   -0.3606 C.ar      1 UNK        -0.1150 
     11 C11        13.5036  -45.1726   -2.3757 C.ar      1 UNK         0.0850 
     12 C12        14.0448  -45.6235   -1.1422 C.ar      1 UNK         0.0850 
     13 C13         7.1674  -43.3030    1.5534 C.2       1 UNK         0.6150 
     14 C14        13.7348  -46.5550    1.1421 C.2       1 UNK         0.7150 
     15 C15         4.6335  -45.6522    5.7962 C.3       1 UNK        -0.1200 
     16 C16         5.9593  -44.9495    5.4600 C.3       1 UNK        -0.1200 
     17 C17         3.9327  -46.1584    4.5246 C.3       1 UNK        -0.1200 
     18 C18         5.7458  -43.8100    4.4499 C.3       1 UNK        -0.1200 
     19 C19         3.7192  -45.0189    3.5144 C.3       1 UNK        -0.1200 
     20 C20        15.6241  -44.3171   -2.9467 C.3       1 UNK         0.1400 
     21 C21        16.2042  -45.4361   -2.0677 C.3       1 UNK         0.1400 
     22 C22         5.0450  -44.3163    3.1782 C.3       1 UNK        -0.0600 
     23 C23        10.1401  -44.5855    1.8699 C.3       1 UNK         0.0900 
     24 C24         8.8455  -45.2954   -0.1407 C.3       1 UNK         0.2650 
     25 C25        10.7595  -46.6725    0.6719 C.3       1 UNK         0.2650 
     26 C26         4.7901  -43.1518    2.2255 C.3       1 UNK         0.0800 
     27 N27         6.0345  -42.6027    1.7034 N.am      1 UNK        -0.5000 
     28 N28         9.6779  -45.7087    1.0196 N.4       1 UNK        -0.1000 
     29 O29         7.5054  -44.2161    2.3056 O.2       1 UNK        -0.5000 
     30 O30        13.0173  -47.2375    1.9049 O.co2     1 UNK        -0.8000 
     31 O31        14.3112  -44.6745   -3.3723 O.3       1 UNK        -0.2850 
     32 O32        15.3994  -45.5947   -0.9016 O.3       1 UNK        -0.2850 
     33 O33        14.9192  -46.2627    1.4164 O.co2     1 UNK        -0.8000 
     34 H34         9.0817  -39.9329   -1.0233 H         1 UNK         0.1150 
     35 H35        10.4142  -41.5204   -2.3978 H         1 UNK         0.1150 
     36 H36         7.6105  -40.7799    0.7708 H         1 UNK         0.1150 
     37 H37        10.2791  -43.9486   -1.9643 H         1 UNK         0.1150 
     38 H38        10.1938  -45.7707   -1.7815 H         1 UNK         0.1150 
     39 H39        11.7071  -44.9081   -3.5384 H         1 UNK         0.1150 
     40 H40         4.8155  -46.4839    6.4768 H         1 UNK         0.0600 
     41 H41         3.9771  -44.9616    6.3258 H         1 UNK         0.0600 
     42 H42         6.4146  -44.5592    6.3702 H         1 UNK         0.0600 
     43 H43         6.6641  -45.6736    5.0515 H         1 UNK         0.0600 
     44 H44         4.5301  -46.9467    4.0665 H         1 UNK         0.0600 
     45 H45         2.9752  -46.6109    4.7827 H         1 UNK         0.0600 
     46 H46         5.1484  -43.0217    4.9080 H         1 UNK         0.0600 
     47 H47         6.7033  -43.3575    4.1918 H         1 UNK         0.0600 
     48 H48         3.2639  -45.4092    2.6043 H         1 UNK         0.0600 
     49 H49         3.0144  -44.2948    3.9229 H         1 UNK         0.0600 
     50 H50        15.5937  -43.3734   -2.4021 H         1 UNK         0.0300 
     51 H51        16.2515  -44.1615   -3.8244 H         1 UNK         0.0300 
     52 H52        16.2501  -46.3760   -2.6177 H         1 UNK         0.0300 
     53 H53        17.2223  -45.1907   -1.7654 H         1 UNK         0.0300 
     54 H54         5.7014  -45.0068    2.6487 H         1 UNK         0.0600 
     55 H55        10.8036  -43.9218    1.3182 H         1 UNK         0.0600 
     56 H56         9.3037  -43.9954    2.2444 H         1 UNK         0.0600 
     57 H57        10.6830  -44.9609    2.7377 H         1 UNK         0.0600 
     58 H58         7.8134  -45.5950    0.0468 H         1 UNK         0.0600 
     59 H59         9.1501  -45.8413   -1.0289 H         1 UNK         0.0600 
     60 H60        11.3023  -46.8952    1.5916 H         1 UNK         0.0600 
     61 H61        10.3266  -47.6301    0.3938 H         1 UNK         0.0600 
     62 H62         4.1614  -43.4737    1.3937 H         1 UNK         0.0600 
     63 H63         4.2482  -42.3611    2.7476 H         1 UNK         0.0600 
     64 H64         6.0310  -41.6328    1.4287 H         1 UNK         0.3000 
     65 H65         9.0472  -46.2379    1.6044 H         1 UNK         0.2900 
@<TRIPOS>BOND
     1    1    2 ar   
     2    1    3 ar   
     3    1   34 1    
     4    2    4 ar   
     5    2   35 1    
     6    3    7 ar   
     7    3   36 1    
     8    4    9 ar   
     9    4   37 1    
    10    5    6 ar   
    11    5   10 ar   
    12    5   38 1    
    13    6   11 ar   
    14    6   39 1    
    15    7    9 ar   
    16    7   13 1    
    17    8   10 ar   
    18    8   12 ar   
    19    8   14 1    
    20    9   24 1    
    21   10   25 1    
    22   11   12 ar   
    23   11   31 1    
    24   12   32 1    
    25   13   27 am   BACKBONE|DICT|INTERRES
    26   13   29 2    
    27   14   30 2    
    28   14   33 1    
    29   15   16 1    
    30   15   17 1    
    31   15   40 1    
    32   15   41 1    
    33   16   18 1    
    34   16   42 1    
    35   16   43 1    
    36   17   19 1    
    37   17   44 1    
    38   17   45 1    
    39   18   22 1    
    40   18   46 1    
    41   18   47 1    
    42   19   22 1    
    43   19   48 1    
    44   19   49 1    
    45   20   21 1    
    46   20   31 1    
    47   20   50 1    
    48   20   51 1    
    49   21   32 1    
    50   21   52 1    
    51   21   53 1    
    52   22   26 1    
    53   22   54 1    
    54   23   28 1    
    55   23   55 1    
    56   23   56 1    
    57   23   57 1    
    58   24   28 1    
    59   24   58 1    
    60   24   59 1    
    61   25   28 1    
    62   25   60 1    
    63   25   61 1    
    64   26   27 1    
    65   26   62 1    
    66   26   63 1    
    67   27   64 1    
    68   28   65 1    
@<TRIPOS>SUBSTRUCTURE
     1 UNK         1 GROUP             0       ****    0 ROOT    
