@<TRIPOS>MOLECULE
AVX101140_0
37   40    1
SMALL
USER_CHARGES


@<TRIPOS>ATOM
      1 C1         11.6017  -26.7432  -21.4718 C.ar      1 UNK        -0.1150 
      2 C2          8.6552  -28.0844  -22.3874 C.ar      1 UNK        -0.1150 
      3 C3         12.7188  -27.3416  -20.8759 C.ar      1 UNK        -0.1150 
      4 C4          7.7706  -28.9877  -21.7574 C.ar      1 UNK        -0.1150 
      5 C5          6.4329  -27.1292  -20.8589 C.ar      1 UNK        -0.1150 
      6 C6          7.3436  -26.2481  -21.4694 C.ar      1 UNK        -0.1150 
      7 C7         12.8482  -26.5059  -23.5577 C.ar      1 UNK        -0.1150 
      8 C8         11.6407  -26.3388  -22.8248 C.ar      1 UNK        -0.1150 
      9 C9          8.4209  -26.7072  -22.2183 C.ar      1 UNK        -0.0383 
     10 C10        13.9003  -27.5431  -21.6071 C.ar      1 UNK         0.0850 
     11 C11        13.9736  -27.1175  -22.9565 C.ar      1 UNK         0.0850 
     12 C12         6.6669  -28.5171  -21.0052 C.ar      1 UNK         0.2000 
     13 C13         7.4239  -24.7889  -21.4508 C.2       1 UNK         0.5850 
     14 C14         8.7179  -24.4506  -22.2053 C.2       1 UNK         0.5000 
     15 C15        12.9717  -25.9792  -24.9521 C.2       1 UNK         0.7150 
     16 C16        15.9127  -28.6960  -21.8987 C.3       1 UNK         0.1400 
     17 C17        16.2908  -27.6221  -22.9169 C.3       1 UNK         0.1400 
     18 C18        10.3972  -25.7581  -23.5073 C.3       1 UNK         0.0650 
     19 N19         9.2015  -25.6196  -22.6728 N.am      1 UNK        -0.0317 
     20 O20        12.9097  -26.7818  -25.9075 O.co2     1 UNK        -0.8000 
     21 O21         6.6533  -23.9702  -20.9570 O.2       1 UNK        -0.4700 
     22 O22         9.2205  -23.3293  -22.2986 O.2       1 UNK        -0.5000 
     23 O23        13.1199  -24.7431  -25.0828 O.co2     1 UNK        -0.8000 
     24 O24        14.9577  -28.1679  -20.9930 O.3       1 UNK        -0.2850 
     25 O25        15.1385  -27.2749  -23.6770 O.3       1 UNK        -0.2850 
     26 Br26        5.5200  -29.7743  -20.1577 Br        1 UNK        -0.2000 
     27 H27        10.7192  -26.6203  -20.8638 H         1 UNK         0.1150 
     28 H28         9.5024  -28.4454  -22.9520 H         1 UNK         0.1150 
     29 H29        12.6601  -27.6434  -19.8436 H         1 UNK         0.1150 
     30 H30         7.9407  -30.0505  -21.8511 H         1 UNK         0.1150 
     31 H31         5.6053  -26.7569  -20.2713 H         1 UNK         0.1150 
     32 H32        15.4814  -29.5484  -22.4169 H         1 UNK         0.0300 
     33 H33        16.7906  -29.0403  -21.3546 H         1 UNK         0.0300 
     34 H34        16.7066  -26.7431  -22.4262 H         1 UNK         0.0300 
     35 H35        17.0572  -28.0147  -23.5831 H         1 UNK         0.0300 
     36 H36        10.6520  -24.7868  -23.9344 H         1 UNK         0.0600 
     37 H37        10.1417  -26.3971  -24.3540 H         1 UNK         0.0600 
@<TRIPOS>BOND
     1    1    3 ar   
     2    1    8 ar   
     3    1   27 1    
     4    2    4 ar   
     5    2    9 ar   
     6    2   28 1    
     7    3   10 ar   
     8    3   29 1    
     9    4   12 ar   
    10    4   30 1    
    11    5    6 ar   
    12    5   12 ar   
    13    5   31 1    
    14    6    9 ar   
    15    6   13 1    
    16    7    8 ar   
    17    7   11 ar   
    18    7   15 1    
    19    8   18 1    
    20    9   19 1    
    21   10   11 ar   
    22   10   24 1    
    23   11   25 1    
    24   12   26 1    
    25   13   14 1    
    26   13   21 2    
    27   14   19 am   BACKBONE|DICT|INTERRES
    28   14   22 2    
    29   15   20 1    
    30   15   23 2    
    31   16   17 1    
    32   16   24 1    
    33   16   32 1    
    34   16   33 1    
    35   17   25 1    
    36   17   34 1    
    37   17   35 1    
    38   18   19 1    
    39   18   36 1    
    40   18   37 1    
@<TRIPOS>SUBSTRUCTURE
     1 UNK         1 GROUP             0       ****    0 ROOT    
