@<TRIPOS>MOLECULE
AVX17684m_0
53   56    1
SMALL
USER_CHARGES


@<TRIPOS>ATOM
      1 C1          2.5651  -46.2303    2.7867 C.ar      1 UNK        -0.1150 
      2 C2          8.3765  -40.7412   -0.0485 C.ar      1 UNK        -0.1150 
      3 C3          2.6008  -45.1754    3.7191 C.ar      1 UNK        -0.1150 
      4 C4          3.7669  -46.7831    2.3031 C.ar      1 UNK        -0.1150 
      5 C5          9.3034  -41.5538   -0.7246 C.ar      1 UNK        -0.1150 
      6 C6          7.4924  -41.3133    0.8851 C.ar      1 UNK        -0.1150 
      7 C7          3.8383  -44.6730    4.1666 C.ar      1 UNK        -0.1150 
      8 C8          5.0048  -46.2815    2.7513 C.ar      1 UNK        -0.1150 
      9 C9          9.3401  -42.9382   -0.4731 C.ar      1 UNK        -0.1150 
     10 C10        11.7244  -45.0120   -1.9081 C.ar      1 UNK        -0.1150 
     11 C11        12.6721  -45.0726   -2.9492 C.ar      1 UNK        -0.1150 
     12 C12         7.5262  -42.7005    1.1537 C.ar      1 UNK        -0.1150 
     13 C13        13.3983  -45.8025   -0.2679 C.ar      1 UNK        -0.1150 
     14 C14         5.0450  -45.2230    3.6831 C.ar      1 UNK        -0.1150 
     15 C15         8.4573  -43.5270    0.4600 C.ar      1 UNK        -0.1150 
     16 C16        12.0676  -45.3645   -0.5753 C.ar      1 UNK        -0.1150 
     17 C17        13.9737  -45.4739   -2.6249 C.ar      1 UNK         0.0850 
     18 C18        14.3292  -45.8249   -1.3371 C.ar      1 UNK         0.0850 
     19 C19         6.5890  -43.2612    2.1829 C.2       1 UNK         0.6150 
     20 C20        13.8127  -46.2476    1.1177 C.2       1 UNK         0.7150 
     21 C21        16.0961  -45.9559   -2.6293 C.3       1 UNK         0.2000 
     22 C22         6.3818  -44.7007    4.1881 C.3       1 UNK         0.1950 
     23 C23         8.4972  -45.0443    0.6386 C.3       1 UNK         0.2850 
     24 C24        10.9789  -45.2144    0.4847 C.3       1 UNK         0.2850 
     25 N25         7.1184  -44.0822    3.0931 N.am      1 UNK        -0.5000 
     26 N26         9.6675  -45.6542   -0.0181 N.4       1 UNK        -0.2000 
     27 O27        15.0157  -46.2733    1.4476 O.co2     1 UNK        -0.8000 
     28 O28         5.4038  -42.9181    2.1865 O.2       1 UNK        -0.5000 
     29 O29        12.9478  -46.6037    1.9475 O.co2     1 UNK        -0.8000 
     30 O30        15.0184  -45.6424   -3.4741 O.3       1 UNK        -0.2850 
     31 O31        15.6251  -46.2454   -1.3366 O.3       1 UNK        -0.2850 
     32 H32         1.6152  -46.6163    2.4428 H         1 UNK         0.1150 
     33 H33         8.3462  -39.6775   -0.2427 H         1 UNK         0.1150 
     34 H34         1.6781  -44.7517    4.0914 H         1 UNK         0.1150 
     35 H35         3.7394  -47.5947    1.5887 H         1 UNK         0.1150 
     36 H36         9.9838  -41.1163   -1.4424 H         1 UNK         0.1150 
     37 H37         6.7924  -40.6759    1.4088 H         1 UNK         0.1150 
     38 H38         3.8593  -43.8683    4.8891 H         1 UNK         0.1150 
     39 H39         5.9242  -46.7146    2.3813 H         1 UNK         0.1150 
     40 H40        10.0500  -43.5503   -1.0125 H         1 UNK         0.1150 
     41 H41        10.7200  -44.6879   -2.1427 H         1 UNK         0.1150 
     42 H42        12.4040  -44.8156   -3.9642 H         1 UNK         0.1150 
     43 H43        16.7597  -45.0907   -2.5735 H         1 UNK         0.1000 
     44 H44        16.6636  -46.7982   -3.0278 H         1 UNK         0.1000 
     45 H45         6.2163  -43.9629    4.9742 H         1 UNK         0.0600 
     46 H46         6.9635  -45.5082    4.6373 H         1 UNK         0.0600 
     47 H47         8.5079  -45.2748    1.7051 H         1 UNK         0.0600 
     48 H48         7.5893  -45.4970    0.2377 H         1 UNK         0.0600 
     49 H49        10.9104  -44.1737    0.8048 H         1 UNK         0.0600 
     50 H50        11.2488  -45.7916    1.3700 H         1 UNK         0.0600 
     51 H51         8.1125  -44.2560    3.0457 H         1 UNK         0.3000 
     52 H52         9.6726  -46.6729    0.1188 H         1 UNK         0.3100 
     53 H53         9.6074  -45.4546   -1.0105 H         1 UNK         0.3100 
@<TRIPOS>BOND
     1    1    3 ar   
     2    1    4 ar   
     3    1   32 1    
     4    2    5 ar   
     5    2    6 ar   
     6    2   33 1    
     7    3    7 ar   
     8    3   34 1    
     9    4    8 ar   
    10    4   35 1    
    11    5    9 ar   
    12    5   36 1    
    13    6   12 ar   
    14    6   37 1    
    15    7   14 ar   
    16    7   38 1    
    17    8   14 ar   
    18    8   39 1    
    19    9   15 ar   
    20    9   40 1    
    21   10   11 ar   
    22   10   16 ar   
    23   10   41 1    
    24   11   17 ar   
    25   11   42 1    
    26   12   15 ar   
    27   12   19 1    
    28   13   16 ar   
    29   13   18 ar   
    30   13   20 1    
    31   14   22 1    
    32   15   23 1    
    33   16   24 1    
    34   17   18 ar   
    35   17   30 1    
    36   18   31 1    
    37   19   25 am   BACKBONE|DICT|INTERRES
    38   19   28 2    
    39   20   27 1    
    40   20   29 2    
    41   21   30 1    
    42   21   31 1    
    43   21   43 1    
    44   21   44 1    
    45   22   25 1    
    46   22   45 1    
    47   22   46 1    
    48   23   26 1    
    49   23   47 1    
    50   23   48 1    
    51   24   26 1    
    52   24   49 1    
    53   24   50 1    
    54   25   51 1    
    55   26   52 1    
    56   26   53 1    
@<TRIPOS>SUBSTRUCTURE
     1 UNK         1 GROUP             0       ****    0 ROOT    
