@<TRIPOS>MOLECULE
AVX101124_1
57   60    1
SMALL
USER_CHARGES


@<TRIPOS>ATOM
      1 C1          9.7838  -41.4945   -0.9849 C.ar      1 UNK        -0.1150 
      2 C2          8.6157  -41.0528   -0.3283 C.ar      1 UNK        -0.1150 
      3 C3         10.2767  -42.7961   -0.7619 C.ar      1 UNK        -0.1150 
      4 C4         11.6687  -45.3438   -2.0873 C.ar      1 UNK        -0.1150 
      5 C5          7.9174  -41.9161    0.5412 C.ar      1 UNK        -0.1150 
      6 C6         12.6690  -45.0741   -3.0377 C.ar      1 UNK        -0.1150 
      7 C7          9.5573  -43.6779    0.0749 C.ar      1 UNK         0.0000 
      8 C8         11.9867  -45.6638   -0.7419 C.ar      1 UNK         0.0000 
      9 C9         13.3586  -45.8101   -0.3421 C.ar      1 UNK        -0.1150 
     10 C10         8.4083  -43.2210    0.7244 C.ar      1 UNK        -0.1150 
     11 C11        13.9998  -45.1925   -2.6293 C.ar      1 UNK         0.0850 
     12 C12        14.3350  -45.5558   -1.3406 C.ar      1 UNK         0.0850 
     13 C13         9.8030  -45.0839    0.4476 C.2       1 UNK         0.0000 
     14 C14        10.8419  -45.8990    0.1525 C.2       1 UNK        -0.1150 
     15 C15        13.7930  -46.2076    1.0568 C.2       1 UNK         0.7150 
     16 C16         8.9017  -47.5985    2.6665 C.2       1 UNK         0.5000 
     17 C17         7.8083  -44.2636    1.6300 C.3       1 UNK        -0.0050 
     18 C18        16.1933  -45.2697   -2.5188 C.3       1 UNK         0.2000 
     19 C19         8.6197  -45.5340    1.3025 C.3       1 UNK         0.1400 
     20 C20         9.5469  -48.1964    3.9200 C.3       1 UNK        -0.1200 
     21 C21         8.5152  -48.7017    4.9490 C.3       1 UNK        -0.1200 
     22 C22         8.1788  -47.6519    6.0185 C.3       1 UNK        -0.1200 
     23 C23         7.0285  -48.0866    6.9436 C.3       1 UNK        -0.1200 
     24 C24         6.7849  -47.1091    8.1047 C.3       1 UNK         0.1900 
     25 N25         9.0196  -46.2746    2.4973 N.am      1 UNK        -0.5000 
     26 N26         7.8158  -47.2458    9.1477 N.4       1 UNK        -0.3000 
     27 O27        12.9519  -46.4714    1.9464 O.co2     1 UNK        -0.8000 
     28 O28        15.0157  -46.2743    1.3125 O.co2     1 UNK        -0.8000 
     29 O29         8.3425  -48.3338    1.8555 O.2       1 UNK        -0.5000 
     30 O30        15.1175  -45.0160   -3.3779 O.3       1 UNK        -0.2850 
     31 O31        15.6943  -45.6164   -1.2565 O.3       1 UNK        -0.2850 
     32 H32        10.3157  -40.8283   -1.6496 H         1 UNK         0.1150 
     33 H33         8.2535  -40.0482   -0.4941 H         1 UNK         0.1150 
     34 H34        11.2017  -43.0732   -1.2341 H         1 UNK         0.1150 
     35 H35        10.6331  -45.2761   -2.3899 H         1 UNK         0.1150 
     36 H36         7.0276  -41.5818    1.0546 H         1 UNK         0.1150 
     37 H37        12.4157  -44.8117   -4.0522 H         1 UNK         0.1150 
     38 H38        10.8020  -46.9042    0.5446 H         1 UNK         0.1150 
     39 H39         7.9374  -43.9496    2.6672 H         1 UNK         0.0600 
     40 H40         6.7429  -44.3944    1.4349 H         1 UNK         0.0600 
     41 H41        16.7949  -46.0903   -2.9133 H         1 UNK         0.1000 
     42 H42        16.8106  -44.3744   -2.4319 H         1 UNK         0.1000 
     43 H43         7.9982  -46.1476    0.6483 H         1 UNK         0.0600 
     44 H44        10.1575  -49.0370    3.5873 H         1 UNK         0.0600 
     45 H45        10.2401  -47.4855    4.3724 H         1 UNK         0.0600 
     46 H46         7.6038  -49.0258    4.4445 H         1 UNK         0.0600 
     47 H47         8.9105  -49.5903    5.4425 H         1 UNK         0.0600 
     48 H48         9.0778  -47.4736    6.6073 H         1 UNK         0.0600 
     49 H49         7.9213  -46.7038    5.5429 H         1 UNK         0.0600 
     50 H50         6.1172  -48.1624    6.3491 H         1 UNK         0.0600 
     51 H51         7.2156  -49.0879    7.3347 H         1 UNK         0.0600 
     52 H52         6.7528  -46.0798    7.7448 H         1 UNK         0.0600 
     53 H53         5.8158  -47.3098    8.5627 H         1 UNK         0.0600 
     54 H54         9.4482  -45.7387    3.2469 H         1 UNK         0.3000 
     55 H55         7.7530  -46.4892    9.8364 H         1 UNK         0.3300 
     56 H56         7.7386  -48.1309    9.6191 H         1 UNK         0.3300 
     57 H57         8.7537  -47.1550    8.7539 H         1 UNK         0.3300 
@<TRIPOS>BOND
     1    1    2 ar   
     2    1    3 ar   
     3    1   32 1    
     4    2    5 ar   
     5    2   33 1    
     6    3    7 ar   
     7    3   34 1    
     8    4    6 ar   
     9    4    8 ar   
    10    4   35 1    
    11    5   10 ar   
    12    5   36 1    
    13    6   11 ar   
    14    6   37 1    
    15    7   10 ar   
    16    7   13 1    
    17    8    9 ar   
    18    8   14 1    
    19    9   12 ar   
    20    9   15 1    
    21   10   17 1    
    22   11   12 ar   
    23   11   30 1    
    24   12   31 1    
    25   13   14 2    
    26   13   19 1    
    27   14   38 1    
    28   15   27 1    
    29   15   28 2    
    30   16   20 1    
    31   16   25 am   BACKBONE|DICT|INTERRES
    32   16   29 2    
    33   17   19 1    
    34   17   39 1    
    35   17   40 1    
    36   18   30 1    
    37   18   31 1    
    38   18   41 1    
    39   18   42 1    
    40   19   25 1    
    41   19   43 1    
    42   20   21 1    
    43   20   44 1    
    44   20   45 1    
    45   21   22 1    
    46   21   46 1    
    47   21   47 1    
    48   22   23 1    
    49   22   48 1    
    50   22   49 1    
    51   23   24 1    
    52   23   50 1    
    53   23   51 1    
    54   24   26 1    
    55   24   52 1    
    56   24   53 1    
    57   25   54 1    
    58   26   55 1    
    59   26   56 1    
    60   26   57 1    
@<TRIPOS>SUBSTRUCTURE
     1 UNK         1 GROUP             0       ****    0 ROOT    
