@<TRIPOS>MOLECULE
AVX101122_1
61   63    1
SMALL
USER_CHARGES


@<TRIPOS>ATOM
      1 C1          8.2241  -41.3383   -0.0200 C.ar      1 UNK        -0.1150 
      2 C2          9.2110  -42.1977   -0.5312 C.ar      1 UNK        -0.1150 
      3 C3         11.7501  -44.4292   -2.7646 C.ar      1 UNK        -0.1150 
      4 C4          7.3919  -41.7711    1.0281 C.ar      1 UNK        -0.1150 
      5 C5          9.3623  -43.4892    0.0047 C.ar      1 UNK        -0.1150 
      6 C6         11.1979  -44.4603   -1.4763 C.ar      1 UNK        -0.1150 
      7 C7          5.3843  -44.8051    6.0728 C.ar      1 UNK        -0.1150 
      8 C8          3.7702  -45.1919    4.2926 C.ar      1 UNK        -0.1150 
      9 C9         12.9959  -45.0270   -3.0066 C.ar      1 UNK        -0.1150 
     10 C10         4.3437  -44.3715    6.9164 C.ar      1 UNK        -0.1150 
     11 C11         2.7300  -44.7591    5.1373 C.ar      1 UNK        -0.1150 
     12 C12         7.5336  -43.0663    1.5784 C.ar      1 UNK        -0.1150 
     13 C13        13.1553  -45.6801   -0.6484 C.ar      1 UNK        -0.1150 
     14 C14         5.1029  -45.2128    4.7538 C.ar      1 UNK        -0.1150 
     15 C15         8.5321  -43.9397    1.0555 C.ar      1 UNK        -0.1150 
     16 C16        11.8748  -45.0936   -0.4118 C.ar      1 UNK        -0.1150 
     17 C17         3.0098  -44.3378    6.4614 C.ar      1 UNK         0.0850 
     18 C18        13.7140  -45.6538   -1.9578 C.ar      1 UNK         0.0850 
     19 C19         6.6300  -43.4785    2.7066 C.2       1 UNK         0.6150 
     20 C20        13.9360  -46.3301    0.4638 C.2       1 UNK         0.7150 
     21 C21        10.2573  -47.3388    1.6026 C.3       1 UNK         0.0900 
     22 C22         2.4513  -43.6449    8.6897 C.3       1 UNK         0.1100 
     23 C23        16.1156  -45.4147   -2.0262 C.3       1 UNK         0.1100 
     24 C24         6.2287  -45.6465    3.8273 C.3       1 UNK         0.1950 
     25 C25         8.7650  -45.3529    1.5930 C.3       1 UNK         0.2650 
     26 C26        11.1646  -45.1105    0.9479 C.3       1 UNK         0.2650 
     27 N27         7.0675  -44.5248    3.4231 N.am      1 UNK        -0.5000 
     28 N28         9.9749  -46.0030    1.0252 N.4       1 UNK        -0.1000 
     29 O29        13.3063  -46.8320    1.4207 O.co2     1 UNK        -0.8000 
     30 O30         5.5329  -42.9492    2.8798 O.2       1 UNK        -0.5000 
     31 O31        15.1849  -46.3258    0.4077 O.co2     1 UNK        -0.8000 
     32 O32         2.0570  -43.8812    7.3461 O.3       1 UNK        -0.2850 
     33 O33        14.9574  -46.2265   -2.1526 O.3       1 UNK        -0.2850 
     34 H34         8.1043  -40.3470   -0.4320 H         1 UNK         0.1150 
     35 H35         9.8516  -41.8676   -1.3359 H         1 UNK         0.1150 
     36 H36        11.2162  -43.9475   -3.5705 H         1 UNK         0.1150 
     37 H37         6.6362  -41.0966    1.4050 H         1 UNK         0.1150 
     38 H38        10.1262  -44.1369   -0.4006 H         1 UNK         0.1150 
     39 H39        10.2345  -44.0007   -1.3111 H         1 UNK         0.1150 
     40 H40         6.4002  -44.8112    6.4402 H         1 UNK         0.1150 
     41 H41         3.5410  -45.5034    3.2840 H         1 UNK         0.1150 
     42 H42        13.3844  -44.9799   -4.0121 H         1 UNK         0.1150 
     43 H43         4.5729  -44.0531    7.9229 H         1 UNK         0.1150 
     44 H44         1.7253  -44.7548    4.7432 H         1 UNK         0.1150 
     45 H45        11.1394  -47.7809    1.1389 H         1 UNK         0.0600 
     46 H46        10.4269  -47.2776    2.6782 H         1 UNK         0.0600 
     47 H47         9.4260  -48.0227    1.4310 H         1 UNK         0.0600 
     48 H48         1.5873  -43.3121    9.2647 H         1 UNK         0.0300 
     49 H49         2.8299  -44.5534    9.1603 H         1 UNK         0.0300 
     50 H50         3.2092  -42.8628    8.7509 H         1 UNK         0.0300 
     51 H51        16.2136  -45.0131   -1.0168 H         1 UNK         0.0300 
     52 H52        16.9999  -46.0197   -2.2259 H         1 UNK         0.0300 
     53 H53        16.1093  -44.5947   -2.7454 H         1 UNK         0.0300 
     54 H54         5.7926  -46.0939    2.9338 H         1 UNK         0.0600 
     55 H55         6.8386  -46.4204    4.2969 H         1 UNK         0.0600 
     56 H56         8.8343  -45.2992    2.6794 H         1 UNK         0.0600 
     57 H57         7.8962  -45.9762    1.3780 H         1 UNK         0.0600 
     58 H58        11.8405  -45.3190    1.7739 H         1 UNK         0.0600 
     59 H59        10.8186  -44.0976    1.1506 H         1 UNK         0.0600 
     60 H60         8.0590  -44.6038    3.5963 H         1 UNK         0.3000 
     61 H61         9.7381  -46.1718    0.0579 H         1 UNK         0.2900 
@<TRIPOS>BOND
     1    1    2 ar   
     2    1    4 ar   
     3    1   34 1    
     4    2    5 ar   
     5    2   35 1    
     6    3    6 ar   
     7    3    9 ar   
     8    3   36 1    
     9    4   12 ar   
    10    4   37 1    
    11    5   15 ar   
    12    5   38 1    
    13    6   16 ar   
    14    6   39 1    
    15    7   10 ar   
    16    7   14 ar   
    17    7   40 1    
    18    8   11 ar   
    19    8   14 ar   
    20    8   41 1    
    21    9   18 ar   
    22    9   42 1    
    23   10   17 ar   
    24   10   43 1    
    25   11   17 ar   
    26   11   44 1    
    27   12   15 ar   
    28   12   19 1    
    29   13   16 ar   
    30   13   18 ar   
    31   13   20 1    
    32   14   24 1    
    33   15   25 1    
    34   16   26 1    
    35   17   32 1    
    36   18   33 1    
    37   19   27 am   BACKBONE|DICT|INTERRES
    38   19   30 2    
    39   20   29 1    
    40   20   31 2    
    41   21   28 1    
    42   21   45 1    
    43   21   46 1    
    44   21   47 1    
    45   22   32 1    
    46   22   48 1    
    47   22   49 1    
    48   22   50 1    
    49   23   33 1    
    50   23   51 1    
    51   23   52 1    
    52   23   53 1    
    53   24   27 1    
    54   24   54 1    
    55   24   55 1    
    56   25   28 1    
    57   25   56 1    
    58   25   57 1    
    59   26   28 1    
    60   26   58 1    
    61   26   59 1    
    62   27   60 1    
    63   28   61 1    
@<TRIPOS>SUBSTRUCTURE
     1 UNK         1 GROUP             0       ****    0 ROOT    
