@<TRIPOS>MOLECULE
AVX101119_0
64   67    1
SMALL
USER_CHARGES


@<TRIPOS>ATOM
      1 C1         12.6174  -44.5976   -2.9989 C.ar      1 UNK        -0.1150 
      2 C2         11.6664  -44.8444   -1.9993 C.ar      1 UNK        -0.1150 
      3 C3          4.5520  -46.5369    5.3334 C.ar      1 UNK        -0.1150 
      4 C4          5.7992  -44.4999    4.8617 C.ar      1 UNK        -0.1150 
      5 C5         13.9730  -44.8653   -2.7568 C.ar      1 UNK        -0.1150 
      6 C6          3.5657  -45.7815    5.9978 C.ar      1 UNK        -0.1150 
      7 C7          4.8115  -43.7453    5.5240 C.ar      1 UNK        -0.1150 
      8 C8          7.1920  -43.1738    1.7424 C.ar      1 UNK        -0.1150 
      9 C9          8.7325  -43.2110   -0.6436 C.ar      1 UNK        -0.1150 
     10 C10         7.5534  -44.4118    1.1559 C.ar      1 UNK        -0.1150 
     11 C11        13.4370  -45.6327   -0.4852 C.ar      1 UNK        -0.1150 
     12 C12         5.6701  -45.8993    4.7597 C.ar      1 UNK        -0.1150 
     13 C13        12.0573  -45.3613   -0.7459 C.ar      1 UNK        -0.1150 
     14 C14         8.3340  -44.4349   -0.0459 C.ar      1 UNK        -0.1150 
     15 C15         7.6304  -41.9881    1.1363 C.ar      1 UNK         0.0850 
     16 C16         8.3764  -42.0061   -0.0198 C.ar      1 UNK         0.0850 
     17 C17         3.6869  -44.3725    6.0978 C.ar      1 UNK         0.0850 
     18 C18        14.4031  -45.3844   -1.5086 C.ar      1 UNK         0.0850 
     19 C19         7.0476  -45.6624    1.8100 C.2       1 UNK         0.6150 
     20 C20        13.8669  -46.1947    0.8545 C.2       1 UNK         0.7150 
     21 C21         8.1181  -39.9307    0.6007 C.3       1 UNK         0.2000 
     22 C22        10.3256  -47.5356   -1.0708 C.3       1 UNK         0.0900 
     23 C23         3.2324  -42.7544    7.8121 C.3       1 UNK         0.1100 
     24 C24        16.6810  -45.5325   -2.3132 C.3       1 UNK         0.1100 
     25 C25         6.7302  -46.7134    4.0399 C.3       1 UNK         0.1950 
     26 C26        10.9541  -45.5684    0.2967 C.3       1 UNK         0.2650 
     27 C27         8.7009  -45.7340   -0.7676 C.3       1 UNK         0.2650 
     28 N28         7.4220  -45.8727    3.0737 N.am      1 UNK        -0.5000 
     29 N29         9.8550  -46.4573   -0.1676 N.4       1 UNK        -0.1000 
     30 O30        15.0565  -46.0746    1.2177 O.co2     1 UNK        -0.8000 
     31 O31         6.2997  -46.4201    1.1898 O.2       1 UNK        -0.5000 
     32 O32        13.0585  -46.8022    1.5872 O.co2     1 UNK        -0.8000 
     33 O33         7.3737  -40.7094    1.5088 O.3       1 UNK        -0.2850 
     34 O34         8.6274  -40.7392   -0.4350 O.3       1 UNK        -0.2850 
     35 O35         2.7743  -43.5586    6.7321 O.3       1 UNK        -0.2850 
     36 O36        15.7306  -45.6898   -1.2659 O.3       1 UNK        -0.2850 
     37 H37        12.3068  -44.2020   -3.9562 H         1 UNK         0.1150 
     38 H38        10.6265  -44.6284   -2.2033 H         1 UNK         0.1150 
     39 H39         4.4476  -47.6112    5.2647 H         1 UNK         0.1150 
     40 H40         6.6579  -44.0011    4.4331 H         1 UNK         0.1150 
     41 H41        14.6647  -44.6643   -3.5614 H         1 UNK         0.1150 
     42 H42         2.7249  -46.3107    6.4218 H         1 UNK         0.1150 
     43 H43         4.9211  -42.6721    5.5941 H         1 UNK         0.1150 
     44 H44         6.5873  -43.1401    2.6379 H         1 UNK         0.1150 
     45 H45         9.2956  -43.1943   -1.5659 H         1 UNK         0.1150 
     46 H46         8.9547  -39.4743    1.1334 H         1 UNK         0.1000 
     47 H47         7.4984  -39.1326    0.1888 H         1 UNK         0.1000 
     48 H48        10.7917  -47.1238   -1.9663 H         1 UNK         0.0600 
     49 H49        11.0488  -48.1845   -0.5775 H         1 UNK         0.0600 
     50 H50         9.4991  -48.1707   -1.3862 H         1 UNK         0.0600 
     51 H51         2.4007  -42.1713    8.2073 H         1 UNK         0.0300 
     52 H52         3.6223  -43.3647    8.6280 H         1 UNK         0.0300 
     53 H53         4.0018  -42.0516    7.4892 H         1 UNK         0.0300 
     54 H54        16.7361  -44.4972   -2.6527 H         1 UNK         0.0300 
     55 H55        17.6696  -45.8090   -1.9469 H         1 UNK         0.0300 
     56 H56        16.4544  -46.1801   -3.1613 H         1 UNK         0.0300 
     57 H57         6.2635  -47.5451    3.5107 H         1 UNK         0.0600 
     58 H58         7.4177  -47.1569    4.7628 H         1 UNK         0.0600 
     59 H59        11.4226  -45.9805    1.1898 H         1 UNK         0.0600 
     60 H60        10.5368  -44.6071    0.5997 H         1 UNK         0.0600 
     61 H61         8.9198  -45.5183   -1.8147 H         1 UNK         0.0600 
     62 H62         7.8239  -46.3814   -0.7932 H         1 UNK         0.0600 
     63 H63         8.2526  -45.3707    3.4230 H         1 UNK         0.3000 
     64 H64         9.5245  -46.8951    0.6928 H         1 UNK         0.2900 
@<TRIPOS>BOND
     1    1    2 ar   
     2    1    5 ar   
     3    1   37 1    
     4    2   13 ar   
     5    2   38 1    
     6    3    6 ar   
     7    3   12 ar   
     8    3   39 1    
     9    4    7 ar   
    10    4   12 ar   
    11    4   40 1    
    12    5   18 ar   
    13    5   41 1    
    14    6   17 ar   
    15    6   42 1    
    16    7   17 ar   
    17    7   43 1    
    18    8   10 ar   
    19    8   15 ar   
    20    8   44 1    
    21    9   14 ar   
    22    9   16 ar   
    23    9   45 1    
    24   10   14 ar   
    25   10   19 1    
    26   11   13 ar   
    27   11   18 ar   
    28   11   20 1    
    29   12   25 1    
    30   13   26 1    
    31   14   27 1    
    32   15   16 ar   
    33   15   33 1    
    34   16   34 1    
    35   17   35 1    
    36   18   36 1    
    37   19   28 am   BACKBONE|DICT|INTERRES
    38   19   31 2    
    39   20   30 1    
    40   20   32 2    
    41   21   33 1    
    42   21   34 1    
    43   21   46 1    
    44   21   47 1    
    45   22   29 1    
    46   22   48 1    
    47   22   49 1    
    48   22   50 1    
    49   23   35 1    
    50   23   51 1    
    51   23   52 1    
    52   23   53 1    
    53   24   36 1    
    54   24   54 1    
    55   24   55 1    
    56   24   56 1    
    57   25   28 1    
    58   25   57 1    
    59   25   58 1    
    60   26   29 1    
    61   26   59 1    
    62   26   60 1    
    63   27   29 1    
    64   27   61 1    
    65   27   62 1    
    66   28   63 1    
    67   29   64 1    
@<TRIPOS>SUBSTRUCTURE
     1 UNK         1 GROUP             0       ****    0 ROOT    
