@<TRIPOS>MOLECULE
AVX101121_0
67   70    1
SMALL
USER_CHARGES


@<TRIPOS>ATOM
      1 C1          7.8209  -40.3642    0.6614 C.ar      1 UNK        -0.1150 
      2 C2          8.6215  -40.6728   -0.4556 C.ar      1 UNK        -0.1150 
      3 C3         12.4640  -45.1189   -3.0787 C.ar      1 UNK        -0.1150 
      4 C4          7.3267  -41.3969    1.4821 C.ar      1 UNK        -0.1150 
      5 C5          8.9295  -42.0147   -0.7539 C.ar      1 UNK        -0.1150 
      6 C6         11.5458  -45.3473   -2.0448 C.ar      1 UNK        -0.1150 
      7 C7          5.4834  -44.4119    5.2816 C.ar      1 UNK        -0.1150 
      8 C8          4.6381  -46.1867    6.7178 C.ar      1 UNK        -0.1150 
      9 C9         13.8328  -45.3332   -2.8592 C.ar      1 UNK        -0.1150 
     10 C10         4.6440  -43.4885    5.9345 C.ar      1 UNK        -0.1150 
     11 C11         3.8003  -45.2619    7.3718 C.ar      1 UNK        -0.1150 
     12 C12         7.1391  -43.7800    1.9991 C.ar      1 UNK        -0.1150 
     13 C13         8.7377  -44.3960   -0.2278 C.ar      1 UNK        -0.1150 
     14 C14         7.6341  -42.7414    1.1877 C.ar      1 UNK         0.0000 
     15 C15         8.4383  -43.0516    0.0664 C.ar      1 UNK         0.0000 
     16 C16         7.4449  -45.1295    1.7166 C.ar      1 UNK        -0.1150 
     17 C17        13.3766  -46.0087   -0.5412 C.ar      1 UNK        -0.1150 
     18 C18         5.4861  -45.7650    5.6742 C.ar      1 UNK        -0.1150 
     19 C19        11.9831  -45.7922   -0.7790 C.ar      1 UNK        -0.1150 
     20 C20         8.2587  -45.4453    0.5906 C.ar      1 UNK        -0.1150 
     21 C21         3.7963  -43.8984    6.9838 C.ar      1 UNK         0.0850 
     22 C22        14.3092  -45.7794   -1.5996 C.ar      1 UNK         0.0850 
     23 C23         6.8495  -46.1830    2.6026 C.2       1 UNK         0.6150 
     24 C24        13.8565  -46.4934    0.8118 C.2       1 UNK         0.7150 
     25 C25        10.3404  -47.8711   -1.2031 C.3       1 UNK         0.0900 
     26 C26         2.1311  -43.3209    8.6138 C.3       1 UNK         0.1100 
     27 C27        16.5917  -45.7376   -2.4041 C.3       1 UNK         0.1100 
     28 C28         6.3916  -46.7635    4.9757 C.3       1 UNK         0.1950 
     29 C29        10.9118  -45.9851    0.2989 C.3       1 UNK         0.2650 
     30 C30         8.5846  -46.8832    0.1799 C.3       1 UNK         0.2650 
     31 N31         7.1213  -46.0975    3.9068 N.am      1 UNK        -0.5000 
     32 N32        10.0408  -47.1693    0.0688 N.4       1 UNK        -0.1000 
     33 O33        15.0173  -46.2210    1.1859 O.co2     1 UNK        -0.8000 
     34 O34         6.1252  -47.0544    2.1183 O.2       1 UNK        -0.5000 
     35 O35        13.1200  -47.1845    1.5463 O.co2     1 UNK        -0.8000 
     36 O36         3.0054  -42.9302    7.5622 O.3       1 UNK        -0.2850 
     37 O37        15.6513  -46.0324   -1.3777 O.3       1 UNK        -0.2850 
     38 H38         7.5845  -39.3337    0.8890 H         1 UNK         0.1150 
     39 H39         8.9996  -39.8792   -1.0855 H         1 UNK         0.1150 
     40 H40        12.1180  -44.7787   -4.0451 H         1 UNK         0.1150 
     41 H41         6.7115  -41.1506    2.3366 H         1 UNK         0.1150 
     42 H42         9.5437  -42.2413   -1.6145 H         1 UNK         0.1150 
     43 H43        10.4950  -45.1734   -2.2320 H         1 UNK         0.1150 
     44 H44         6.1258  -44.0784    4.4781 H         1 UNK         0.1150 
     45 H45         4.6267  -47.2255    7.0191 H         1 UNK         0.1150 
     46 H46        14.4981  -45.1494   -3.6897 H         1 UNK         0.1150 
     47 H47         4.6513  -42.4527    5.6249 H         1 UNK         0.1150 
     48 H48         3.1682  -45.6284    8.1674 H         1 UNK         0.1150 
     49 H49         6.5141  -43.5448    2.8500 H         1 UNK         0.1150 
     50 H50         9.3397  -44.6252   -1.0963 H         1 UNK         0.1150 
     51 H51        11.3637  -48.2452   -1.2233 H         1 UNK         0.0600 
     52 H52         9.6892  -48.7337   -1.3370 H         1 UNK         0.0600 
     53 H53        10.2013  -47.2108   -2.0595 H         1 UNK         0.0600 
     54 H54         1.5748  -42.4514    8.9640 H         1 UNK         0.0300 
     55 H55         1.4045  -44.0610    8.2756 H         1 UNK         0.0300 
     56 H56         2.6833  -43.7217    9.4650 H         1 UNK         0.0300 
     57 H57        17.5939  -45.9896   -2.0576 H         1 UNK         0.0300 
     58 H58        16.4007  -46.3240   -3.3039 H         1 UNK         0.0300 
     59 H59        16.5905  -44.6763   -2.6564 H         1 UNK         0.0300 
     60 H60         5.7941  -47.5675    4.5445 H         1 UNK         0.0600 
     61 H61         7.0615  -47.2328    5.6988 H         1 UNK         0.0600 
     62 H62        10.2914  -45.0911    0.3770 H         1 UNK         0.0600 
     63 H63        11.4240  -46.0730    1.2565 H         1 UNK         0.0600 
     64 H64         8.1213  -47.5660    0.8927 H         1 UNK         0.0600 
     65 H65         8.1030  -47.1058   -0.7738 H         1 UNK         0.0600 
     66 H66         7.8921  -45.4799    4.2038 H         1 UNK         0.3000 
     67 H67        10.2874  -47.7967    0.8347 H         1 UNK         0.2900 
@<TRIPOS>BOND
     1    1    2 ar   
     2    1    4 ar   
     3    1   38 1    
     4    2    5 ar   
     5    2   39 1    
     6    3    6 ar   
     7    3    9 ar   
     8    3   40 1    
     9    4   14 ar   
    10    4   41 1    
    11    5   15 ar   
    12    5   42 1    
    13    6   19 ar   
    14    6   43 1    
    15    7   10 ar   
    16    7   18 ar   
    17    7   44 1    
    18    8   11 ar   
    19    8   18 ar   
    20    8   45 1    
    21    9   22 ar   
    22    9   46 1    
    23   10   21 ar   
    24   10   47 1    
    25   11   21 ar   
    26   11   48 1    
    27   12   14 ar   
    28   12   16 ar   
    29   12   49 1    
    30   13   15 ar   
    31   13   20 ar   
    32   13   50 1    
    33   14   15 ar   
    34   16   20 ar   
    35   16   23 1    
    36   17   19 ar   
    37   17   22 ar   
    38   17   24 1    
    39   18   28 1    
    40   19   29 1    
    41   20   30 1    
    42   21   36 1    
    43   22   37 1    
    44   23   31 am   BACKBONE|DICT|INTERRES
    45   23   34 2    
    46   24   33 1    
    47   24   35 2    
    48   25   32 1    
    49   25   51 1    
    50   25   52 1    
    51   25   53 1    
    52   26   36 1    
    53   26   54 1    
    54   26   55 1    
    55   26   56 1    
    56   27   37 1    
    57   27   57 1    
    58   27   58 1    
    59   27   59 1    
    60   28   31 1    
    61   28   60 1    
    62   28   61 1    
    63   29   32 1    
    64   29   62 1    
    65   29   63 1    
    66   30   32 1    
    67   30   64 1    
    68   30   65 1    
    69   31   66 1    
    70   32   67 1    
@<TRIPOS>SUBSTRUCTURE
     1 UNK         1 GROUP             0       ****    0 ROOT    
