@<TRIPOS>MOLECULE
AVX17715_0
57   60    1
SMALL
USER_CHARGES


@<TRIPOS>ATOM
      1 C1          7.7810  -40.7627    0.7557 C.ar      1 UNK        -0.1150 
      2 C2          8.6370  -40.7619   -0.3586 C.ar      1 UNK        -0.1150 
      3 C3          7.3422  -41.9831    1.3015 C.ar      1 UNK        -0.1150 
      4 C4          9.0480  -41.9809   -0.9284 C.ar      1 UNK        -0.1150 
      5 C5         11.8344  -44.8952   -2.0110 C.ar      1 UNK        -0.1150 
      6 C6          4.2084  -45.3383    3.7388 C.ar      1 UNK        -0.1150 
      7 C7          5.6220  -44.6157    5.5841 C.ar      1 UNK        -0.1150 
      8 C8         12.8100  -45.0092   -3.0216 C.ar      1 UNK        -0.1150 
      9 C9          3.0679  -44.9263    4.4545 C.ar      1 UNK        -0.1150 
     10 C10         4.4801  -44.2049    6.3000 C.ar      1 UNK        -0.1150 
     11 C11         7.7509  -43.2177    0.7432 C.ar      1 UNK        -0.1150 
     12 C12        13.4191  -45.7447   -0.3133 C.ar      1 UNK        -0.1150 
     13 C13         5.4912  -45.1868    4.3024 C.ar      1 UNK        -0.1150 
     14 C14         8.6132  -43.2146   -0.3933 C.ar      1 UNK        -0.1150 
     15 C15        12.1194  -45.2502   -0.6652 C.ar      1 UNK        -0.1150 
     16 C16        14.0812  -45.4665   -2.6538 C.ar      1 UNK         0.0850 
     17 C17        14.3803  -45.8204   -1.3526 C.ar      1 UNK         0.0850 
     18 C18         3.1873  -44.3581    5.7389 C.ar      1 UNK         0.0850 
     19 C19         7.2758  -44.4937    1.3834 C.2       1 UNK         0.6150 
     20 C20        13.7712  -46.1931    1.0881 C.2       1 UNK         0.7150 
     21 C21        16.1783  -46.0447   -2.5879 C.3       1 UNK         0.2000 
     22 C22         2.1121  -43.4213    7.6706 C.3       1 UNK         0.1100 
     23 C23         6.7249  -45.6177    3.5264 C.3       1 UNK         0.1950 
     24 C24         9.0580  -44.4954   -1.0972 C.3       1 UNK         0.2850 
     25 C25        11.0076  -45.0362    0.3603 C.3       1 UNK         0.2850 
     26 N26         7.2124  -44.5079    2.7181 N.am      1 UNK        -0.5000 
     27 N27         9.6939  -45.4429   -0.1645 N.4       1 UNK        -0.2000 
     28 O28        12.8778  -46.4583    1.9176 O.co2     1 UNK        -0.8000 
     29 O29         6.9449  -45.4553    0.6845 O.2       1 UNK        -0.5000 
     30 O30        14.9691  -46.2945    1.4314 O.co2     1 UNK        -0.8000 
     31 O31        15.1426  -45.6906   -3.4686 O.3       1 UNK        -0.2850 
     32 O32        15.6551  -46.2991   -1.3080 O.3       1 UNK        -0.2850 
     33 O33         2.0198  -43.9839    6.3674 O.3       1 UNK        -0.2850 
     34 H34         7.4644  -39.8267    1.1959 H         1 UNK         0.1150 
     35 H35         8.9770  -39.8256   -0.7796 H         1 UNK         0.1150 
     36 H36         6.6969  -41.9640    2.1694 H         1 UNK         0.1150 
     37 H37         9.7002  -41.9614   -1.7908 H         1 UNK         0.1150 
     38 H38        10.8540  -44.5266   -2.2796 H         1 UNK         0.1150 
     39 H39         4.0956  -45.7675    2.7525 H         1 UNK         0.1150 
     40 H40         6.6016  -44.4884    6.0240 H         1 UNK         0.1150 
     41 H41        12.5855  -44.7497   -4.0465 H         1 UNK         0.1150 
     42 H42         2.0895  -45.0481    4.0108 H         1 UNK         0.1150 
     43 H43         4.6265  -43.7732    7.2793 H         1 UNK         0.1150 
     44 H44        16.7181  -46.9164   -2.9613 H         1 UNK         0.1000 
     45 H45        16.8794  -45.2105   -2.5191 H         1 UNK         0.1000 
     46 H46         1.1126  -43.1800    8.0323 H         1 UNK         0.0300 
     47 H47         2.5569  -44.1223    8.3784 H         1 UNK         0.0300 
     48 H48         2.6918  -42.4972    7.6673 H         1 UNK         0.0300 
     49 H49         6.4976  -46.4874    2.9064 H         1 UNK         0.0600 
     50 H50         7.5086  -45.9297    4.2179 H         1 UNK         0.0600 
     51 H51         8.1983  -44.9645   -1.5781 H         1 UNK         0.0600 
     52 H52         9.7609  -44.2578   -1.8969 H         1 UNK         0.0600 
     53 H53        10.9660  -43.9870    0.6561 H         1 UNK         0.0600 
     54 H54        11.2355  -45.6019    1.2647 H         1 UNK         0.0600 
     55 H55         7.5047  -43.6741    3.2074 H         1 UNK         0.3000 
     56 H56         9.1139  -45.5617    0.6761 H         1 UNK         0.3100 
     57 H57         9.7808  -46.3327   -0.6400 H         1 UNK         0.3100 
@<TRIPOS>BOND
     1    1    2 ar   
     2    1    3 ar   
     3    1   34 1    
     4    2    4 ar   
     5    2   35 1    
     6    3   11 ar   
     7    3   36 1    
     8    4   14 ar   
     9    4   37 1    
    10    5    8 ar   
    11    5   15 ar   
    12    5   38 1    
    13    6    9 ar   
    14    6   13 ar   
    15    6   39 1    
    16    7   10 ar   
    17    7   13 ar   
    18    7   40 1    
    19    8   16 ar   
    20    8   41 1    
    21    9   18 ar   
    22    9   42 1    
    23   10   18 ar   
    24   10   43 1    
    25   11   14 ar   
    26   11   19 1    
    27   12   15 ar   
    28   12   17 ar   
    29   12   20 1    
    30   13   23 1    
    31   14   24 1    
    32   15   25 1    
    33   16   17 ar   
    34   16   31 1    
    35   17   32 1    
    36   18   33 1    
    37   19   26 am   BACKBONE|DICT|INTERRES
    38   19   29 2    
    39   20   28 1    
    40   20   30 2    
    41   21   31 1    
    42   21   32 1    
    43   21   44 1    
    44   21   45 1    
    45   22   33 1    
    46   22   46 1    
    47   22   47 1    
    48   22   48 1    
    49   23   26 1    
    50   23   49 1    
    51   23   50 1    
    52   24   27 1    
    53   24   51 1    
    54   24   52 1    
    55   25   27 1    
    56   25   53 1    
    57   25   54 1    
    58   26   55 1    
    59   27   56 1    
    60   27   57 1    
@<TRIPOS>SUBSTRUCTURE
     1 UNK         1 GROUP             0       ****    0 ROOT    
