@<TRIPOS>MOLECULE
AVX17587_2
59   62    1
SMALL
USER_CHARGES


@<TRIPOS>ATOM
      1 C1          8.6172  -41.5483   -0.4523 C.ar      1 UNK        -0.1150 
      2 C2          9.9313  -41.8750   -0.8558 C.ar      1 UNK        -0.1150 
      3 C3          7.8530  -42.4622    0.3044 C.ar      1 UNK        -0.1150 
      4 C4         10.5093  -43.1042   -0.4807 C.ar      1 UNK        -0.1150 
      5 C5         11.9131  -45.4742   -2.2214 C.ar      1 UNK        -0.1150 
      6 C6         12.9978  -45.0746   -3.0233 C.ar      1 UNK        -0.1150 
      7 C7         13.4084  -45.9134   -0.2959 C.ar      1 UNK        -0.1150 
      8 C8          8.4405  -43.6923    0.6512 C.ar      1 UNK        -0.1150 
      9 C9          9.7390  -44.0166    0.2657 C.ar      1 UNK        -0.1150 
     10 C10        12.0906  -45.8961   -0.8745 C.ar      1 UNK        -0.1150 
     11 C11        14.2723  -45.1185   -2.4551 C.ar      1 UNK         0.0850 
     12 C12        14.4736  -45.5267   -1.1517 C.ar      1 UNK         0.0850 
     13 C13        13.7097  -46.3119    1.1391 C.2       1 UNK         0.7150 
     14 C14         8.7346  -47.7574    3.1455 C.2       1 UNK         0.5000 
     15 C15         7.8215  -44.7677    1.4972 C.3       1 UNK        -0.0050 
     16 C16        16.4326  -45.0247   -2.0663 C.3       1 UNK         0.2000 
     17 C17        10.1658  -45.3562    0.8327 C.3       1 UNK         0.0550 
     18 C18         8.8472  -45.9260    1.4342 C.3       1 UNK         0.1400 
     19 C19        10.8245  -46.3605   -0.1493 C.3       1 UNK        -0.0050 
     20 C20         9.0217  -48.0607    4.6208 C.3       1 UNK        -0.1200 
     21 C21         8.1341  -49.1737    5.2143 C.3       1 UNK        -0.1200 
     22 C22         8.3526  -49.4005    6.7227 C.3       1 UNK        -0.1200 
     23 C23         7.8016  -48.2715    7.6115 C.3       1 UNK        -0.1200 
     24 C24         7.9789  -48.5520    9.1118 C.3       1 UNK         0.1900 
     25 N25         9.0584  -46.5223    2.7468 N.am      1 UNK        -0.5000 
     26 N26         7.4159  -47.4743    9.9475 N.4       1 UNK        -0.3000 
     27 O27        12.7993  -46.6734    1.9166 O.co2     1 UNK        -0.8000 
     28 O28        14.8913  -46.2739    1.5472 O.co2     1 UNK        -0.8000 
     29 O29         8.2283  -48.5996    2.4054 O.2       1 UNK        -0.5000 
     30 O30        15.4544  -44.8010   -3.0402 O.3       1 UNK        -0.2850 
     31 O31        15.8125  -45.4796   -0.8974 O.3       1 UNK        -0.2850 
     32 H32         8.1986  -40.5924   -0.7314 H         1 UNK         0.1150 
     33 H33        10.5061  -41.1653   -1.4335 H         1 UNK         0.1150 
     34 H34         6.8486  -42.2168    0.6190 H         1 UNK         0.1150 
     35 H35        11.5328  -43.3148   -0.7452 H         1 UNK         0.1150 
     36 H36        10.9234  -45.4575   -2.6546 H         1 UNK         0.1150 
     37 H37        12.8587  -44.7646   -4.0487 H         1 UNK         0.1150 
     38 H38         7.6951  -44.3873    2.5120 H         1 UNK         0.0600 
     39 H39         6.8442  -45.0617    1.1118 H         1 UNK         0.0600 
     40 H40        17.1390  -45.7760   -2.4205 H         1 UNK         0.1000 
     41 H41        16.9617  -44.0949   -1.8560 H         1 UNK         0.1000 
     42 H42        10.8619  -45.1136    1.6357 H         1 UNK         0.0600 
     43 H43         8.4410  -46.6646    0.7401 H         1 UNK         0.0600 
     44 H44        11.0247  -47.3040    0.3569 H         1 UNK         0.0600 
     45 H45        10.0858  -46.6243   -0.9061 H         1 UNK         0.0600 
     46 H46        10.0763  -48.3236    4.7223 H         1 UNK         0.0600 
     47 H47         8.8745  -47.1398    5.1846 H         1 UNK         0.0600 
     48 H48         7.0813  -48.9591    5.0231 H         1 UNK         0.0600 
     49 H49         8.3493  -50.1073    4.6902 H         1 UNK         0.0600 
     50 H50         7.8661  -50.3347    7.0039 H         1 UNK         0.0600 
     51 H51         9.4150  -49.5447    6.9194 H         1 UNK         0.0600 
     52 H52         8.3046  -47.3414    7.3636 H         1 UNK         0.0600 
     53 H53         6.7452  -48.1213    7.3886 H         1 UNK         0.0600 
     54 H54         7.4773  -49.4851    9.3718 H         1 UNK         0.0600 
     55 H55         9.0320  -48.6815    9.3599 H         1 UNK         0.0600 
     56 H56         9.4452  -45.9058    3.4551 H         1 UNK         0.3000 
     57 H57         7.4091  -47.7650   10.9130 H         1 UNK         0.3300 
     58 H58         7.9727  -46.6136    9.9187 H         1 UNK         0.3300 
     59 H59         6.4740  -47.2583    9.6605 H         1 UNK         0.3300 
@<TRIPOS>BOND
     1    1    2 ar   
     2    1    3 ar   
     3    1   32 1    
     4    2    4 ar   
     5    2   33 1    
     6    3    8 ar   
     7    3   34 1    
     8    4    9 ar   
     9    4   35 1    
    10    5    6 ar   
    11    5   10 ar   
    12    5   36 1    
    13    6   11 ar   
    14    6   37 1    
    15    7   10 ar   
    16    7   12 ar   
    17    7   13 1    
    18    8    9 ar   
    19    8   15 1    
    20    9   17 1    
    21   10   19 1    
    22   11   12 ar   
    23   11   30 1    
    24   12   31 1    
    25   13   27 1    
    26   13   28 2    
    27   14   20 1    
    28   14   25 am   BACKBONE|DICT|INTERRES
    29   14   29 2    
    30   15   18 1    
    31   15   38 1    
    32   15   39 1    
    33   16   30 1    
    34   16   31 1    
    35   16   40 1    
    36   16   41 1    
    37   17   18 1    
    38   17   19 1    
    39   17   42 1    
    40   18   25 1    
    41   18   43 1    
    42   19   44 1    
    43   19   45 1    
    44   20   21 1    
    45   20   46 1    
    46   20   47 1    
    47   21   22 1    
    48   21   48 1    
    49   21   49 1    
    50   22   23 1    
    51   22   50 1    
    52   22   51 1    
    53   23   24 1    
    54   23   52 1    
    55   23   53 1    
    56   24   26 1    
    57   24   54 1    
    58   24   55 1    
    59   25   56 1    
    60   26   57 1    
    61   26   58 1    
    62   26   59 1    
@<TRIPOS>SUBSTRUCTURE
     1 UNK         1 GROUP             0       ****    0 ROOT    
