@<TRIPOS>MOLECULE
AVX38786_1
71   74    1
SMALL
USER_CHARGES


@<TRIPOS>ATOM
      1 C1          8.9664  -40.8529   -0.7243 C.ar      1 UNK        -0.1150 
      2 C2          9.8484  -41.5700   -1.5504 C.ar      1 UNK        -0.1150 
      3 C3          8.1033  -41.5456    0.1446 C.ar      1 UNK        -0.1150 
      4 C4          9.8664  -42.9762   -1.5043 C.ar      1 UNK        -0.1150 
      5 C5         11.5958  -44.4646   -1.5106 C.ar      1 UNK        -0.1150 
      6 C6          4.7374  -45.5455    3.1815 C.ar      1 UNK        -0.1150 
      7 C7          5.6077  -43.8695    4.7181 C.ar      1 UNK        -0.1150 
      8 C8         12.4851  -44.3682   -2.5985 C.ar      1 UNK        -0.1150 
      9 C9          4.8326  -46.5239    4.1908 C.ar      1 UNK        -0.1150 
     10 C10         5.7005  -44.8478    5.7271 C.ar      1 UNK        -0.1150 
     11 C11         8.1208  -42.9567    0.2102 C.ar      1 UNK        -0.1150 
     12 C12        13.3144  -45.6025   -0.2058 C.ar      1 UNK        -0.1150 
     13 C13         5.1289  -44.2164    3.4393 C.ar      1 UNK        -0.1150 
     14 C14         9.0185  -43.6862   -0.6223 C.ar      1 UNK        -0.1150 
     15 C15        12.0088  -45.0858   -0.3162 C.ar      1 UNK        -0.1150 
     16 C16        13.7884  -44.8932   -2.4987 C.ar      1 UNK         0.0850 
     17 C17        14.2124  -45.4993   -1.2861 C.ar      1 UNK         0.0850 
     18 C18         5.3176  -46.1816    5.4782 C.ar      1 UNK         0.0850 
     19 C19         7.1479  -43.6303    1.1327 C.2       1 UNK         0.6150 
     20 C20        13.7415  -46.2384    1.0406 C.2       1 UNK         0.7150 
     21 C21        18.9467  -46.1419   -3.5451 C.2       1 UNK         0.7000 
     22 C22        16.4133  -45.5487   -2.1277 C.3       1 UNK         0.1400 
     23 C23        15.7738  -45.6457   -3.5217 C.3       1 UNK         0.1700 
     24 C24         9.8482  -47.3017    0.3456 C.3       1 UNK         0.0900 
     25 C25         5.9950  -46.5983    7.7434 C.3       1 UNK         0.1100 
     26 C26         5.0301  -43.1657    2.3479 C.3       1 UNK         0.1950 
     27 C27         9.0618  -45.2159   -0.6572 C.3       1 UNK         0.2650 
     28 C28        11.0466  -45.1945    0.8581 C.3       1 UNK         0.2650 
     29 C29        17.9980  -46.1413   -4.7423 C.3       1 UNK        -0.2200 
     30 C30        16.7707  -45.2139   -4.5933 C.3       1 UNK        -0.1200 
     31 N31         6.3627  -42.8361    1.8642 N.am      1 UNK        -0.5000 
     32 N32         9.7472  -45.8314    0.5118 N.4       1 UNK        -0.1000 
     33 O33        12.8845  -46.7325    1.8037 O.co2     1 UNK        -0.8000 
     34 O34        19.9968  -45.4747   -3.6261 O.co2     1 UNK        -0.8000 
     35 O35         7.0848  -44.8606    1.1665 O.2       1 UNK        -0.5000 
     36 O36        14.9472  -46.2747    1.3627 O.co2     1 UNK        -0.8000 
     37 O37        18.6680  -46.8491   -2.5562 O.co2     1 UNK        -0.8000 
     38 O38        15.4861  -46.0002   -1.1433 O.3       1 UNK        -0.2850 
     39 O39        14.6296  -44.7975   -3.5836 O.3       1 UNK        -0.2850 
     40 O40         5.4368  -47.0708    6.5234 O.3       1 UNK        -0.2850 
     41 H41         8.9455  -39.7721   -0.7622 H         1 UNK         0.1150 
     42 H42        10.5068  -41.0418   -2.2265 H         1 UNK         0.1150 
     43 H43         7.4181  -40.9871    0.7682 H         1 UNK         0.1150 
     44 H44        10.5407  -43.5109   -2.1593 H         1 UNK         0.1150 
     45 H45        10.5959  -44.0651   -1.5943 H         1 UNK         0.1150 
     46 H46         4.3599  -45.8186    2.2054 H         1 UNK         0.1150 
     47 H47         5.9054  -42.8514    4.9286 H         1 UNK         0.1150 
     48 H48        12.1624  -43.8974   -3.5154 H         1 UNK         0.1150 
     49 H49         4.5238  -47.5303    3.9488 H         1 UNK         0.1150 
     50 H50         6.0702  -44.5696    6.7042 H         1 UNK         0.1150 
     51 H51        17.3107  -46.1655   -2.0792 H         1 UNK         0.0300 
     52 H52        16.7155  -44.5242   -1.9109 H         1 UNK         0.0300 
     53 H53        15.4868  -46.6732   -3.7453 H         1 UNK         0.0300 
     54 H54        10.5446  -47.5610   -0.4522 H         1 UNK         0.0600 
     55 H55        10.1832  -47.7866    1.2621 H         1 UNK         0.0600 
     56 H56         8.8801  -47.7349    0.0979 H         1 UNK         0.0600 
     57 H57         6.0242  -47.4126    8.4674 H         1 UNK         0.0300 
     58 H58         7.0179  -46.2453    7.6049 H         1 UNK         0.0300 
     59 H59         5.3932  -45.7971    8.1748 H         1 UNK         0.0300 
     60 H60         4.5669  -42.2611    2.7437 H         1 UNK         0.0600 
     61 H61         4.3790  -43.5182    1.5456 H         1 UNK         0.0600 
     62 H62         8.0426  -45.5952   -0.7370 H         1 UNK         0.0600 
     63 H63         9.5551  -45.5433   -1.5738 H         1 UNK         0.0600 
     64 H64        11.5502  -45.7646    1.6380 H         1 UNK         0.0600 
     65 H65        10.8615  -44.2081    1.2857 H         1 UNK         0.0600 
     66 H66        17.6513  -47.1665   -4.8804 H         1 UNK         0.0600 
     67 H67        18.5453  -45.8875   -5.6517 H         1 UNK         0.0600 
     68 H68        16.2601  -45.1020   -5.5506 H         1 UNK         0.0600 
     69 H69        17.1386  -44.2192   -4.3403 H         1 UNK         0.0600 
     70 H70         6.7010  -41.8872    2.0846 H         1 UNK         0.3000 
     71 H71         9.1689  -45.6508    1.3328 H         1 UNK         0.2900 
@<TRIPOS>BOND
     1    1    2 ar   
     2    1    3 ar   
     3    1   41 1    
     4    2    4 ar   
     5    2   42 1    
     6    3   11 ar   
     7    3   43 1    
     8    4   14 ar   
     9    4   44 1    
    10    5    8 ar   
    11    5   15 ar   
    12    5   45 1    
    13    6    9 ar   
    14    6   13 ar   
    15    6   46 1    
    16    7   10 ar   
    17    7   13 ar   
    18    7   47 1    
    19    8   16 ar   
    20    8   48 1    
    21    9   18 ar   
    22    9   49 1    
    23   10   18 ar   
    24   10   50 1    
    25   11   14 ar   
    26   11   19 1    
    27   12   15 ar   
    28   12   17 ar   
    29   12   20 1    
    30   13   26 1    
    31   14   27 1    
    32   15   28 1    
    33   16   17 ar   
    34   16   39 1    
    35   17   38 1    
    36   18   40 1    
    37   19   31 am   BACKBONE|DICT|INTERRES
    38   19   35 2    
    39   20   33 1    
    40   20   36 2    
    41   21   29 1    
    42   21   34 1    
    43   21   37 2    
    44   22   23 1    
    45   22   38 1    
    46   22   51 1    
    47   22   52 1    
    48   23   30 1    
    49   23   39 1    
    50   23   53 1    
    51   24   32 1    
    52   24   54 1    
    53   24   55 1    
    54   24   56 1    
    55   25   40 1    
    56   25   57 1    
    57   25   58 1    
    58   25   59 1    
    59   26   31 1    
    60   26   60 1    
    61   26   61 1    
    62   27   32 1    
    63   27   62 1    
    64   27   63 1    
    65   28   32 1    
    66   28   64 1    
    67   28   65 1    
    68   29   30 1    
    69   29   66 1    
    70   29   67 1    
    71   30   68 1    
    72   30   69 1    
    73   31   70 1    
    74   32   71 1    
@<TRIPOS>SUBSTRUCTURE
     1 UNK         1 GROUP             0       ****    0 ROOT    
