@<TRIPOS>MOLECULE
AVX38741_1
64   68    1
SMALL
USER_CHARGES


@<TRIPOS>ATOM
      1 C1         10.9814  -41.7795   -1.7553 C.ar      1 UNK        -0.1150 
      2 C2          5.5701  -48.6401    2.7590 C.ar      1 UNK        -0.1150 
      3 C3          6.7728  -49.3626    2.8578 C.ar      1 UNK        -0.1150 
      4 C4          9.7602  -41.0996   -1.7205 C.ar      1 UNK        -0.1150 
      5 C5         11.2207  -42.8153   -0.8524 C.ar      1 UNK        -0.1150 
      6 C6          5.5950  -47.2634    2.4643 C.ar      1 UNK        -0.1150 
      7 C7          8.0027  -48.7073    2.6678 C.ar      1 UNK        -0.1150 
      8 C8          8.7551  -41.5094   -0.8243 C.ar      1 UNK        -0.1150 
      9 C9         10.2389  -43.1744    0.0831 C.ar      1 UNK        -0.1150 
     10 C10        11.2365  -45.8923   -1.9907 C.ar      1 UNK        -0.1150 
     11 C11        12.1888  -45.3381   -2.8516 C.ar      1 UNK        -0.1150 
     12 C12         6.8207  -46.5955    2.2512 C.ar      1 UNK        -0.1150 
     13 C13        12.9589  -46.2974   -0.2826 C.ar      1 UNK        -0.1150 
     14 C14         8.0342  -47.3289    2.3715 C.ar      1 UNK        -0.1150 
     15 C15         8.9549  -42.6103    0.0294 C.ar      1 UNK        -0.1150 
     16 C16        11.5946  -46.4160   -0.7328 C.ar      1 UNK        -0.1150 
     17 C17        13.5417  -45.3791   -2.5047 C.ar      1 UNK         0.0850 
     18 C18        13.9374  -45.8388   -1.2228 C.ar      1 UNK         0.0850 
     19 C19         6.8090  -45.1142    1.9459 C.2       1 UNK         0.6150 
     20 C20        13.3880  -46.6076    1.1472 C.2       1 UNK         0.7150 
     21 C21        18.7935  -46.1745   -3.7863 C.2       1 UNK         0.7000 
     22 C22         9.3763  -46.6345    2.2006 C.3       1 UNK         0.2050 
     23 C23        16.1448  -45.1391   -1.7901 C.3       1 UNK         0.1400 
     24 C24         8.4883  -45.5707    0.1934 C.3       1 UNK         0.1600 
     25 C25        15.7746  -45.4669   -3.2445 C.3       1 UNK         0.1700 
     26 C26         7.7989  -43.1663    0.8579 C.3       1 UNK         0.0650 
     27 C27        10.4601  -47.1050    0.0411 C.3       1 UNK         0.2050 
     28 C28        17.7957  -45.7335   -4.8516 C.3       1 UNK        -0.2200 
     29 C29        16.6899  -44.8123   -4.2983 C.3       1 UNK        -0.1200 
     30 N30         7.6903  -44.6391    1.0265 N.am      1 UNK        -0.1400 
     31 N31         9.6567  -46.1848    0.8420 N.3       1 UNK        -0.6300 
     32 O32        14.5287  -46.2749    1.5474 O.co2     1 UNK        -0.8000 
     33 O33        18.5001  -47.1798   -3.1059 O.co2     1 UNK        -0.8000 
     34 O34         5.9931  -44.3908    2.5219 O.2       1 UNK        -0.5000 
     35 O35        12.6089  -47.1632    1.9475 O.co2     1 UNK        -0.8000 
     36 O36        19.8213  -45.4743   -3.6512 O.co2     1 UNK        -0.8000 
     37 O37        15.2867  -45.8695   -0.9208 O.3       1 UNK        -0.2850 
     38 O38        14.4566  -44.9791   -3.4497 O.3       1 UNK        -0.2850 
     39 H39        11.7416  -41.4874   -2.4512 H         1 UNK         0.1150 
     40 H40         4.6244  -49.1401    2.9063 H         1 UNK         0.1150 
     41 H41         6.7510  -50.4185    3.0875 H         1 UNK         0.1150 
     42 H42         9.5727  -40.2950   -2.4135 H         1 UNK         0.1150 
     43 H43        12.1815  -43.3081   -0.8466 H         1 UNK         0.1150 
     44 H44         4.6623  -46.7236    2.3914 H         1 UNK         0.1150 
     45 H45         8.9251  -49.2628    2.7574 H         1 UNK         0.1150 
     46 H46         7.8171  -40.9901   -0.8376 H         1 UNK         0.1150 
     47 H47        10.4895  -43.9196    0.8171 H         1 UNK         0.1150 
     48 H48        10.2163  -45.9365   -2.3262 H         1 UNK         0.1150 
     49 H49        11.8908  -44.9655   -3.8210 H         1 UNK         0.1150 
     50 H50        10.1841  -47.2485    2.5992 H         1 UNK         0.0600 
     51 H51         9.3708  -45.7308    2.8016 H         1 UNK         0.0600 
     52 H52        17.1733  -45.4154   -1.5637 H         1 UNK         0.0300 
     53 H53        16.0541  -44.0685   -1.6065 H         1 UNK         0.0300 
     54 H54         7.8339  -46.3706   -0.1606 H         1 UNK         0.0600 
     55 H55         8.7802  -45.0937   -0.7397 H         1 UNK         0.0600 
     56 H56        15.7722  -46.5474   -3.3941 H         1 UNK         0.0300 
     57 H57         6.8621  -42.8210    0.4117 H         1 UNK         0.0600 
     58 H58         7.8628  -42.6899    1.8401 H         1 UNK         0.0600 
     59 H59         9.8049  -47.6084   -0.6706 H         1 UNK         0.0600 
     60 H60        10.8552  -47.9247    0.6381 H         1 UNK         0.0600 
     61 H61        17.3510  -46.6171   -5.3101 H         1 UNK         0.0600 
     62 H62        18.3324  -45.2215   -5.6520 H         1 UNK         0.0600 
     63 H63        16.0775  -44.5236   -5.1538 H         1 UNK         0.0600 
     64 H64        17.1076  -43.8793   -3.9188 H         1 UNK         0.0600 
@<TRIPOS>BOND
     1    1    4 ar   
     2    1    5 ar   
     3    1   39 1    
     4    2    3 ar   
     5    2    6 ar   
     6    2   40 1    
     7    3    7 ar   
     8    3   41 1    
     9    4    8 ar   
    10    4   42 1    
    11    5    9 ar   
    12    5   43 1    
    13    6   12 ar   
    14    6   44 1    
    15    7   14 ar   
    16    7   45 1    
    17    8   15 ar   
    18    8   46 1    
    19    9   15 ar   
    20    9   47 1    
    21   10   11 ar   
    22   10   16 ar   
    23   10   48 1    
    24   11   17 ar   
    25   11   49 1    
    26   12   14 ar   
    27   12   19 1    
    28   13   16 ar   
    29   13   18 ar   
    30   13   20 1    
    31   14   22 1    
    32   15   26 1    
    33   16   27 1    
    34   17   18 ar   
    35   17   38 1    
    36   18   37 1    
    37   19   30 am   BACKBONE|DICT|INTERRES
    38   19   34 2    
    39   20   32 1    
    40   20   35 2    
    41   21   28 1    
    42   21   33 1    
    43   21   36 2    
    44   22   31 1    
    45   22   50 1    
    46   22   51 1    
    47   23   25 1    
    48   23   37 1    
    49   23   52 1    
    50   23   53 1    
    51   24   30 1    
    52   24   31 1    
    53   24   54 1    
    54   24   55 1    
    55   25   29 1    
    56   25   38 1    
    57   25   56 1    
    58   26   30 1    
    59   26   57 1    
    60   26   58 1    
    61   27   31 1    
    62   27   59 1    
    63   27   60 1    
    64   28   29 1    
    65   28   61 1    
    66   28   62 1    
    67   29   63 1    
    68   29   64 1    
@<TRIPOS>SUBSTRUCTURE
     1 UNK         1 GROUP             0       ****    0 ROOT    
