@<TRIPOS>MOLECULE
AVX38781_1
77   80    1
SMALL
USER_CHARGES


@<TRIPOS>ATOM
      1 C1          8.5398  -41.1759   -0.0952 C.ar      1 UNK        -0.1150 
      2 C2          9.3717  -41.9921   -0.8798 C.ar      1 UNK        -0.1150 
      3 C3          7.7348  -41.7516    0.9042 C.ar      1 UNK        -0.1150 
      4 C4          9.4074  -43.3793   -0.6521 C.ar      1 UNK        -0.1150 
      5 C5         11.9700  -44.3043   -1.8547 C.ar      1 UNK        -0.1150 
      6 C6         12.9032  -44.3569   -2.8932 C.ar      1 UNK        -0.1150 
      7 C7          7.7419  -43.1465    1.1287 C.ar      1 UNK        -0.1150 
      8 C8         13.4997  -45.5716   -0.4224 C.ar      1 UNK        -0.1150 
      9 C9          8.6115  -43.9707    0.3543 C.ar      1 UNK        -0.1150 
     10 C10        12.2460  -44.9104   -0.6100 C.ar      1 UNK        -0.1150 
     11 C11        14.1355  -45.0166   -2.7187 C.ar      1 UNK         0.0850 
     12 C12        14.4436  -45.6133   -1.4671 C.ar      1 UNK         0.0850 
     13 C13        12.5770  -48.2719   -0.8875 C.2       1 UNK        -0.2300 
     14 C14        11.5567  -47.9144   -0.0935 C.2       1 UNK        -0.1150 
     15 C15         6.8433  -43.6849    2.2059 C.2       1 UNK         0.6150 
     16 C16        13.8064  -46.1968    0.8643 C.2       1 UNK         0.7150 
     17 C17        19.2234  -46.5879   -3.4241 C.2       1 UNK         0.7000 
     18 C18         3.9247  -45.5297    6.8020 C.3       1 UNK        -0.1200 
     19 C19         3.6897  -46.5799    5.7037 C.3       1 UNK        -0.1200 
     20 C20         4.4666  -44.2173    6.2119 C.3       1 UNK        -0.1200 
     21 C21         4.9669  -46.8232    4.8826 C.3       1 UNK        -0.1200 
     22 C22         5.7437  -44.4606    5.3908 C.3       1 UNK        -0.1200 
     23 C23        16.6555  -45.9391   -2.2129 C.3       1 UNK         0.1400 
     24 C24         5.5087  -45.5107    4.2924 C.3       1 UNK        -0.0600 
     25 C25        16.0621  -46.0248   -3.6277 C.3       1 UNK         0.1700 
     26 C26         8.7701  -45.4748    0.5735 C.3       1 UNK         0.2650 
     27 C27        11.1592  -44.7979    0.4712 C.3       1 UNK         0.2650 
     28 C28        10.4228  -46.9953   -0.5058 C.3       1 UNK         0.1500 
     29 C29        18.2907  -46.7777   -4.6269 C.3       1 UNK        -0.2200 
     30 C30         6.8090  -45.7762    3.5391 C.3       1 UNK         0.0800 
     31 C31        17.1404  -45.7507   -4.6721 C.3       1 UNK        -0.1200 
     32 N32         7.4180  -44.5414    3.0623 N.am      1 UNK        -0.5000 
     33 N33        10.1831  -45.9295    0.5074 N.4       1 UNK        -0.1000 
     34 O34        12.8630  -46.5826    1.5880 O.co2     1 UNK        -0.8000 
     35 O35        19.7799  -45.4786   -3.2629 O.co2     1 UNK        -0.8000 
     36 O36         5.6518  -43.3798    2.2389 O.2       1 UNK        -0.5000 
     37 O37        15.0033  -46.2967    1.2127 O.co2     1 UNK        -0.8000 
     38 O38        19.3645  -47.5779   -2.6739 O.co2     1 UNK        -0.8000 
     39 O39        15.6476  -46.2441   -1.2518 O.3       1 UNK        -0.2850 
     40 O40        15.0223  -45.0598   -3.7701 O.3       1 UNK        -0.2850 
     41 H41         8.5158  -40.1089   -0.2614 H         1 UNK         0.1150 
     42 H42         9.9893  -41.5535   -1.6498 H         1 UNK         0.1150 
     43 H43         7.0951  -41.1114    1.4952 H         1 UNK         0.1150 
     44 H44        10.0648  -43.9926   -1.2513 H         1 UNK         0.1150 
     45 H45        11.0264  -43.8000   -2.0025 H         1 UNK         0.1150 
     46 H46        12.6761  -43.8950   -3.8427 H         1 UNK         0.1150 
     47 H47        13.3529  -48.9329   -0.5300 H         1 UNK         0.1150 
     48 H48        12.6522  -47.9132   -1.9038 H         1 UNK         0.1150 
     49 H49        11.5168  -48.3028    0.9140 H         1 UNK         0.1150 
     50 H50         2.9959  -45.3401    7.3401 H         1 UNK         0.0600 
     51 H51         4.6296  -45.9195    7.5364 H         1 UNK         0.0600 
     52 H52         3.3504  -47.5149    6.1495 H         1 UNK         0.0600 
     53 H53         2.8883  -46.2468    5.0441 H         1 UNK         0.0600 
     54 H54         3.7064  -43.7589    5.5793 H         1 UNK         0.0600 
     55 H55         4.6688  -43.5052    7.0120 H         1 UNK         0.0600 
     56 H56         5.7270  -47.2815    5.5151 H         1 UNK         0.0600 
     57 H57         4.7646  -47.5352    4.0825 H         1 UNK         0.0600 
     58 H58         6.0830  -43.5256    4.9450 H         1 UNK         0.0600 
     59 H59         6.5451  -44.7936    6.0503 H         1 UNK         0.0600 
     60 H60        17.4764  -46.6478   -2.1031 H         1 UNK         0.0300 
     61 H61        17.0613  -44.9455   -2.0227 H         1 UNK         0.0300 
     62 H62         4.8038  -45.1210    3.5580 H         1 UNK         0.0600 
     63 H63        15.6713  -47.0232   -3.8239 H         1 UNK         0.0300 
     64 H64         8.3392  -45.8162    1.5090 H         1 UNK         0.0600 
     65 H65         8.2033  -45.9652   -0.2187 H         1 UNK         0.0600 
     66 H66        10.6172  -43.8576    0.4077 H         1 UNK         0.0600 
     67 H67        11.6519  -44.7386    1.4421 H         1 UNK         0.0600 
     68 H68        10.5955  -46.5679   -1.4940 H         1 UNK         0.0600 
     69 H69         9.5484  -47.6371   -0.6015 H         1 UNK         0.0600 
     70 H70        17.8850  -47.7891   -4.5897 H         1 UNK         0.0600 
     71 H71        18.8889  -46.7107   -5.5361 H         1 UNK         0.0600 
     72 H72         7.5210  -46.2911    4.1860 H         1 UNK         0.0600 
     73 H73         6.6146  -46.4351    2.6910 H         1 UNK         0.0600 
     74 H74        16.6870  -45.7399   -5.6646 H         1 UNK         0.0600 
     75 H75        17.5453  -44.7511   -4.5064 H         1 UNK         0.0600 
     76 H76         8.3489  -44.3340    3.3945 H         1 UNK         0.3000 
     77 H77        10.3404  -46.3775    1.3985 H         1 UNK         0.2900 
@<TRIPOS>BOND
     1    1    2 ar   
     2    1    3 ar   
     3    1   41 1    
     4    2    4 ar   
     5    2   42 1    
     6    3    7 ar   
     7    3   43 1    
     8    4    9 ar   
     9    4   44 1    
    10    5    6 ar   
    11    5   10 ar   
    12    5   45 1    
    13    6   11 ar   
    14    6   46 1    
    15    7    9 ar   
    16    7   15 1    
    17    8   10 ar   
    18    8   12 ar   
    19    8   16 1    
    20    9   26 1    
    21   10   27 1    
    22   11   12 ar   
    23   11   40 1    
    24   12   39 1    
    25   13   14 2    
    26   13   47 1    
    27   13   48 1    
    28   14   28 1    
    29   14   49 1    
    30   15   32 am   BACKBONE|DICT|INTERRES
    31   15   36 2    
    32   16   34 1    
    33   16   37 2    
    34   17   29 1    
    35   17   35 1    
    36   17   38 2    
    37   18   19 1    
    38   18   20 1    
    39   18   50 1    
    40   18   51 1    
    41   19   21 1    
    42   19   52 1    
    43   19   53 1    
    44   20   22 1    
    45   20   54 1    
    46   20   55 1    
    47   21   24 1    
    48   21   56 1    
    49   21   57 1    
    50   22   24 1    
    51   22   58 1    
    52   22   59 1    
    53   23   25 1    
    54   23   39 1    
    55   23   60 1    
    56   23   61 1    
    57   24   30 1    
    58   24   62 1    
    59   25   31 1    
    60   25   40 1    
    61   25   63 1    
    62   26   33 1    
    63   26   64 1    
    64   26   65 1    
    65   27   33 1    
    66   27   66 1    
    67   27   67 1    
    68   28   33 1    
    69   28   68 1    
    70   28   69 1    
    71   29   31 1    
    72   29   70 1    
    73   29   71 1    
    74   30   32 1    
    75   30   72 1    
    76   30   73 1    
    77   31   74 1    
    78   31   75 1    
    79   32   76 1    
    80   33   77 1    
@<TRIPOS>SUBSTRUCTURE
     1 UNK         1 GROUP             0       ****    0 ROOT    
