@<TRIPOS>MOLECULE
AVX38785_1
67   70    1
SMALL
USER_CHARGES


@<TRIPOS>ATOM
      1 C1          3.9685  -45.0840    6.7827 C.ar      1 UNK        -0.1150 
      2 C2          8.2027  -40.7253    0.3269 C.ar      1 UNK        -0.1150 
      3 C3          3.2106  -45.8277    5.8602 C.ar      1 UNK        -0.1150 
      4 C4          4.8472  -44.0871    6.3217 C.ar      1 UNK        -0.1150 
      5 C5          9.0399  -41.2998   -0.6426 C.ar      1 UNK        -0.1150 
      6 C6          7.4160  -41.5534    1.1483 C.ar      1 UNK        -0.1150 
      7 C7          3.3289  -45.5681    4.4815 C.ar      1 UNK        -0.1150 
      8 C8          4.9802  -43.8371    4.9436 C.ar      1 UNK        -0.1150 
      9 C9          9.1294  -42.6959   -0.7560 C.ar      1 UNK        -0.1150 
     10 C10        11.3443  -45.5616   -1.9819 C.ar      1 UNK        -0.1150 
     11 C11        12.3303  -45.0764   -2.8450 C.ar      1 UNK        -0.1150 
     12 C12         7.4779  -42.9607    1.0348 C.ar      1 UNK        -0.1150 
     13 C13        13.0314  -46.1024   -0.2673 C.ar      1 UNK        -0.1150 
     14 C14         4.2117  -44.5716    4.0123 C.ar      1 UNK        -0.1150 
     15 C15         8.3687  -43.5367    0.0854 C.ar      1 UNK        -0.1150 
     16 C16        11.6577  -46.0877   -0.7066 C.ar      1 UNK        -0.1150 
     17 C17        13.6743  -45.1940   -2.4848 C.ar      1 UNK         0.0850 
     18 C18        14.0369  -45.6974   -1.2074 C.ar      1 UNK         0.0850 
     19 C19         6.6272  -43.8146    1.9343 C.2       1 UNK         0.6150 
     20 C20        13.4497  -46.5110    1.1455 C.2       1 UNK         0.7150 
     21 C21        18.8236  -46.3107   -3.7678 C.2       1 UNK         0.7000 
     22 C22        16.2925  -45.1531   -1.7763 C.3       1 UNK         0.1400 
     23 C23        15.8889  -45.4195   -3.2368 C.3       1 UNK         0.1700 
     24 C24        10.3924  -44.7142    1.6475 C.3       1 UNK         0.0900 
     25 C25         4.2727  -44.3090    2.5132 C.3       1 UNK         0.1950 
     26 C26         8.5534  -45.0465   -0.0659 C.3       1 UNK         0.2650 
     27 C27        10.4614  -46.6577    0.0812 C.3       1 UNK         0.2650 
     28 C28        17.8823  -45.7996   -4.8527 C.3       1 UNK        -0.2200 
     29 C29        16.8333  -44.8152   -4.2982 C.3       1 UNK        -0.1200 
     30 N30         5.3452  -43.4378    2.0331 N.am      1 UNK        -0.5000 
     31 N31         9.6204  -45.6523    0.7943 N.4       1 UNK        -0.1000 
     32 O32        14.6120  -46.2743    1.5430 O.co2     1 UNK        -0.8000 
     33 O33        19.5983  -45.4740   -3.2538 O.co2     1 UNK        -0.8000 
     34 O34         7.0742  -44.8378    2.4516 O.2       1 UNK        -0.5000 
     35 O35        12.6426  -47.0415    1.9409 O.co2     1 UNK        -0.8000 
     36 O36        18.7225  -47.5114   -3.4398 O.co2     1 UNK        -0.8000 
     37 O37        15.3824  -45.8236   -0.9111 O.3       1 UNK        -0.2850 
     38 O38        14.6129  -44.8297   -3.4188 O.3       1 UNK        -0.2850 
     39 H39         3.8753  -45.2747    7.8425 H         1 UNK         0.1150 
     40 H40         8.1464  -39.6513    0.4297 H         1 UNK         0.1150 
     41 H41         2.5326  -46.5928    6.2078 H         1 UNK         0.1150 
     42 H42         5.4169  -43.5044    7.0262 H         1 UNK         0.1150 
     43 H43         9.6327  -40.6730   -1.2914 H         1 UNK         0.1150 
     44 H44         6.7794  -41.0929    1.8884 H         1 UNK         0.1150 
     45 H45         2.7348  -46.1377    3.7820 H         1 UNK         0.1150 
     46 H46         5.6590  -43.0625    4.6192 H         1 UNK         0.1150 
     47 H47         9.8019  -43.1184   -1.4884 H         1 UNK         0.1150 
     48 H48        10.3312  -45.5513   -2.3484 H         1 UNK         0.1150 
     49 H49        12.0607  -44.6881   -3.8141 H         1 UNK         0.1150 
     50 H50        17.2928  -45.5255   -1.5626 H         1 UNK         0.0300 
     51 H51        16.2960  -44.0846   -1.5588 H         1 UNK         0.0300 
     52 H52        15.8007  -46.4924   -3.4102 H         1 UNK         0.0300 
     53 H53        11.0158  -44.0672    1.0347 H         1 UNK         0.0600 
     54 H54        11.0274  -45.2523    2.3432 H         1 UNK         0.0600 
     55 H55         9.7442  -44.0946    2.2671 H         1 UNK         0.0600 
     56 H56         3.3216  -43.8739    2.2091 H         1 UNK         0.0600 
     57 H57         4.3422  -45.2701    1.9997 H         1 UNK         0.0600 
     58 H58         8.7262  -45.2387   -1.1192 H         1 UNK         0.0600 
     59 H59         7.6196  -45.5773    0.1139 H         1 UNK         0.0600 
     60 H60         9.8257  -47.1880   -0.6292 H         1 UNK         0.0600 
     61 H61        10.7362  -47.4596    0.7575 H         1 UNK         0.0600 
     62 H62        17.3846  -46.6485   -5.3255 H         1 UNK         0.0600 
     63 H63        18.4670  -45.3237   -5.6440 H         1 UNK         0.0600 
     64 H64        16.2365  -44.4871   -5.1500 H         1 UNK         0.0600 
     65 H65        17.3096  -43.9123   -3.9190 H         1 UNK         0.0600 
     66 H66         5.0678  -42.5871    1.5665 H         1 UNK         0.3000 
     67 H67         9.0940  -46.1904    1.4696 H         1 UNK         0.2900 
@<TRIPOS>BOND
     1    1    3 ar   
     2    1    4 ar   
     3    1   39 1    
     4    2    5 ar   
     5    2    6 ar   
     6    2   40 1    
     7    3    7 ar   
     8    3   41 1    
     9    4    8 ar   
    10    4   42 1    
    11    5    9 ar   
    12    5   43 1    
    13    6   12 ar   
    14    6   44 1    
    15    7   14 ar   
    16    7   45 1    
    17    8   14 ar   
    18    8   46 1    
    19    9   15 ar   
    20    9   47 1    
    21   10   11 ar   
    22   10   16 ar   
    23   10   48 1    
    24   11   17 ar   
    25   11   49 1    
    26   12   15 ar   
    27   12   19 1    
    28   13   16 ar   
    29   13   18 ar   
    30   13   20 1    
    31   14   25 1    
    32   15   26 1    
    33   16   27 1    
    34   17   18 ar   
    35   17   38 1    
    36   18   37 1    
    37   19   30 am   BACKBONE|DICT|INTERRES
    38   19   34 2    
    39   20   32 1    
    40   20   35 2    
    41   21   28 1    
    42   21   33 1    
    43   21   36 2    
    44   22   23 1    
    45   22   37 1    
    46   22   50 1    
    47   22   51 1    
    48   23   29 1    
    49   23   38 1    
    50   23   52 1    
    51   24   31 1    
    52   24   53 1    
    53   24   54 1    
    54   24   55 1    
    55   25   30 1    
    56   25   56 1    
    57   25   57 1    
    58   26   31 1    
    59   26   58 1    
    60   26   59 1    
    61   27   31 1    
    62   27   60 1    
    63   27   61 1    
    64   28   29 1    
    65   28   62 1    
    66   28   63 1    
    67   29   64 1    
    68   29   65 1    
    69   30   66 1    
    70   31   67 1    
@<TRIPOS>SUBSTRUCTURE
     1 UNK         1 GROUP             0       ****    0 ROOT    
