@<TRIPOS>MOLECULE
AVX38708_1
56   59    1
SMALL
USER_CHARGES


@<TRIPOS>ATOM
      1 C1          2.2589  -45.0757    3.8381 C.ar      1 UNK        -0.1150 
      2 C2          8.1326  -40.8405    0.3491 C.ar      1 UNK        -0.1150 
      3 C3          2.9244  -44.8365    5.0560 C.ar      1 UNK        -0.1150 
      4 C4          2.9933  -45.4565    2.6984 C.ar      1 UNK        -0.1150 
      5 C5          9.0767  -41.5849   -0.3757 C.ar      1 UNK        -0.1150 
      6 C6          7.3544  -41.4718    1.3356 C.ar      1 UNK        -0.1150 
      7 C7          4.3234  -44.9818    5.1353 C.ar      1 UNK        -0.1150 
      8 C8          4.3927  -45.5980    2.7761 C.ar      1 UNK        -0.1150 
      9 C9          9.2454  -42.9541   -0.1046 C.ar      1 UNK        -0.1150 
     10 C10        11.8720  -44.7293   -1.9628 C.ar      1 UNK        -0.1150 
     11 C11        12.7848  -44.9155   -3.0195 C.ar      1 UNK        -0.1150 
     12 C12         7.5076  -42.8506    1.6174 C.ar      1 UNK        -0.1150 
     13 C13        13.4499  -45.7408   -0.3497 C.ar      1 UNK        -0.1150 
     14 C14         5.0622  -45.3644    3.9959 C.ar      1 UNK        -0.1150 
     15 C15         8.4841  -43.6040    0.8958 C.ar      1 UNK        -0.1150 
     16 C16        12.1859  -45.1260   -0.6349 C.ar      1 UNK        -0.1150 
     17 C17        14.0261  -45.4869   -2.7161 C.ar      1 UNK         0.0850 
     18 C18        14.3517  -45.8854   -1.4343 C.ar      1 UNK         0.0850 
     19 C19         6.6216  -43.4571    2.6709 C.2       1 UNK         0.6150 
     20 C20        13.8242  -46.2409    1.0281 C.2       1 UNK         0.7150 
     21 C21        16.0663  -46.2408   -2.7538 C.3       1 UNK         0.2000 
     22 C22         9.5951  -46.1383   -0.9769 C.3       1 UNK         0.0900 
     23 C23         6.5728  -45.5078    4.0757 C.3       1 UNK         0.1950 
     24 C24         8.7679  -45.0948    1.1341 C.3       1 UNK         0.2650 
     25 C25        11.1520  -44.8042    0.4460 C.3       1 UNK         0.2650 
     26 N26         7.2089  -44.3352    3.4900 N.am      1 UNK        -0.5000 
     27 N27         9.9292  -45.6406    0.3791 N.4       1 UNK        -0.1000 
     28 O28        15.0161  -46.2772    1.3956 O.co2     1 UNK        -0.8000 
     29 O29         5.4253  -43.1742    2.7394 O.2       1 UNK        -0.5000 
     30 O30        12.9382  -46.6476    1.8093 O.co2     1 UNK        -0.8000 
     31 O31        15.0256  -45.7898   -3.5820 O.3       1 UNK        -0.2850 
     32 O32        15.5800  -46.4744   -1.4559 O.3       1 UNK        -0.2850 
     33 H33         1.1855  -44.9605    3.7762 H         1 UNK         0.1150 
     34 H34         7.9983  -39.7872    0.1429 H         1 UNK         0.1150 
     35 H35         2.3611  -44.5374    5.9295 H         1 UNK         0.1150 
     36 H36         2.4827  -45.6344    1.7619 H         1 UNK         0.1150 
     37 H37         9.6726  -41.1060   -1.1407 H         1 UNK         0.1150 
     38 H38         6.6181  -40.8861    1.8696 H         1 UNK         0.1150 
     39 H39         4.8290  -44.7912    6.0724 H         1 UNK         0.1150 
     40 H40         4.9511  -45.8863    1.8959 H         1 UNK         0.1150 
     41 H41         9.9788  -43.5074   -0.6750 H         1 UNK         0.1150 
     42 H42        10.9208  -44.2635   -2.1800 H         1 UNK         0.1150 
     43 H43        12.5383  -44.6198   -4.0294 H         1 UNK         0.1150 
     44 H44        16.5183  -47.1457   -3.1628 H         1 UNK         0.1000 
     45 H45        16.8338  -45.4658   -2.7041 H         1 UNK         0.1000 
     46 H46        10.4071  -46.7367   -1.3890 H         1 UNK         0.0600 
     47 H47         8.7126  -46.7772   -0.9489 H         1 UNK         0.0600 
     48 H48         9.4019  -45.3154   -1.6652 H         1 UNK         0.0600 
     49 H49         6.8867  -46.3974    3.5281 H         1 UNK         0.0600 
     50 H50         6.8890  -45.6559    5.1102 H         1 UNK         0.0600 
     51 H51         8.8746  -45.3342    2.1894 H         1 UNK         0.0600 
     52 H52         7.8846  -45.6599    0.8333 H         1 UNK         0.0600 
     53 H53        10.8747  -43.7511    0.3917 H         1 UNK         0.0600 
     54 H54        11.6313  -44.9430    1.4151 H         1 UNK         0.0600 
     55 H55         8.1811  -44.1808    3.7165 H         1 UNK         0.3000 
     56 H56        10.2108  -46.4572    0.9266 H         1 UNK         0.2900 
@<TRIPOS>BOND
     1    1    3 ar   
     2    1    4 ar   
     3    1   33 1    
     4    2    5 ar   
     5    2    6 ar   
     6    2   34 1    
     7    3    7 ar   
     8    3   35 1    
     9    4    8 ar   
    10    4   36 1    
    11    5    9 ar   
    12    5   37 1    
    13    6   12 ar   
    14    6   38 1    
    15    7   14 ar   
    16    7   39 1    
    17    8   14 ar   
    18    8   40 1    
    19    9   15 ar   
    20    9   41 1    
    21   10   11 ar   
    22   10   16 ar   
    23   10   42 1    
    24   11   17 ar   
    25   11   43 1    
    26   12   15 ar   
    27   12   19 1    
    28   13   16 ar   
    29   13   18 ar   
    30   13   20 1    
    31   14   23 1    
    32   15   24 1    
    33   16   25 1    
    34   17   18 ar   
    35   17   31 1    
    36   18   32 1    
    37   19   26 am   BACKBONE|DICT|INTERRES
    38   19   29 2    
    39   20   28 1    
    40   20   30 2    
    41   21   31 1    
    42   21   32 1    
    43   21   44 1    
    44   21   45 1    
    45   22   27 1    
    46   22   46 1    
    47   22   47 1    
    48   22   48 1    
    49   23   26 1    
    50   23   49 1    
    51   23   50 1    
    52   24   27 1    
    53   24   51 1    
    54   24   52 1    
    55   25   27 1    
    56   25   53 1    
    57   25   54 1    
    58   26   55 1    
    59   27   56 1    
@<TRIPOS>SUBSTRUCTURE
     1 UNK         1 GROUP             0       ****    0 ROOT    
