@<TRIPOS>MOLECULE
AVX38784_5
65   67    1
SMALL
USER_CHARGES


@<TRIPOS>ATOM
      1 C1          8.2839  -40.6127    0.1581 C.ar      1 UNK        -0.1150 
      2 C2          9.0146  -41.3646   -0.7712 C.ar      1 UNK        -0.1150 
      3 C3          7.5393  -41.2720    1.1474 C.ar      1 UNK        -0.1150 
      4 C4          9.0004  -42.7662   -0.6885 C.ar      1 UNK        -0.1150 
      5 C5         11.6764  -45.0853   -2.0657 C.ar      1 UNK        -0.1150 
      6 C6         12.6981  -45.0768   -3.0182 C.ar      1 UNK        -0.1150 
      7 C7          7.5200  -42.6786    1.2499 C.ar      1 UNK        -0.1150 
      8 C8         13.2450  -45.8301   -0.3315 C.ar      1 UNK        -0.1150 
      9 C9          8.2918  -43.4498    0.3331 C.ar      1 UNK        -0.1150 
     10 C10        11.9194  -45.4540   -0.7213 C.ar      1 UNK        -0.1150 
     11 C11        13.9893  -45.4733   -2.6625 C.ar      1 UNK         0.0850 
     12 C12        14.2671  -45.8540   -1.3282 C.ar      1 UNK         0.0850 
     13 C13         6.6208  -43.2821    2.2927 C.2       1 UNK         0.6150 
     14 C14        13.5993  -46.1999    1.0964 C.2       1 UNK         0.7150 
     15 C15        19.3908  -45.8759   -4.0289 C.2       1 UNK         0.7000 
     16 C16        16.3711  -46.6803   -2.0717 C.3       1 UNK         0.1400 
     17 C17        16.2842  -45.7370   -3.2864 C.3       1 UNK         0.1700 
     18 C18         4.7120  -46.0489    2.9042 C.3       1 UNK        -0.1800 
     19 C19         5.6839  -43.9712    5.1875 C.3       1 UNK        -0.1800 
     20 C20         9.2500  -47.0495   -0.3988 C.3       1 UNK         0.0300 
     21 C21         8.3378  -44.9841    0.3933 C.3       1 UNK         0.2050 
     22 C22        10.7410  -45.3091    0.2512 C.3       1 UNK         0.2050 
     23 C23        18.3556  -46.9127   -4.4505 C.3       1 UNK        -0.2200 
     24 C24        16.9352  -46.3165   -4.5670 C.3       1 UNK        -0.1200 
     25 C25         5.9345  -46.1703    3.8265 C.3       1 UNK        -0.1200 
     26 C26         6.5819  -44.8406    4.2857 C.3       1 UNK         0.1400 
     27 N27         7.2067  -44.0981    3.1854 N.am      1 UNK        -0.5000 
     28 N28         9.4331  -45.6028   -0.3529 N.3       1 UNK        -0.6300 
     29 O29        14.7203  -45.8743    1.5465 O.co2     1 UNK        -0.8000 
     30 O30        20.2171  -45.4741   -4.8737 O.co2     1 UNK        -0.8000 
     31 O31         5.4277  -42.9833    2.3169 O.2       1 UNK        -0.5000 
     32 O32        12.7919  -46.8361    1.8106 O.co2     1 UNK        -0.8000 
     33 O33        19.3547  -45.4743   -2.8521 O.co2     1 UNK        -0.8000 
     34 O34        15.5378  -46.2581   -1.0017 O.3       1 UNK        -0.2850 
     35 O35        14.9318  -45.5109   -3.6608 O.3       1 UNK        -0.2850 
     36 H36         8.2797  -39.5342    0.1075 H         1 UNK         0.1150 
     37 H37         9.5725  -40.8721   -1.5539 H         1 UNK         0.1150 
     38 H38         7.0084  -40.6765    1.8689 H         1 UNK         0.1150 
     39 H39         9.5540  -43.3090   -1.4336 H         1 UNK         0.1150 
     40 H40        10.6926  -44.7944   -2.3970 H         1 UNK         0.1150 
     41 H41        12.4798  -44.8022   -4.0382 H         1 UNK         0.1150 
     42 H42        16.1419  -47.7088   -2.3391 H         1 UNK         0.0300 
     43 H43        17.3927  -46.6921   -1.6960 H         1 UNK         0.0300 
     44 H44        16.7310  -44.7753   -3.0317 H         1 UNK         0.0300 
     45 H45         4.2920  -47.0344    2.6953 H         1 UNK         0.0600 
     46 H46         3.9261  -45.4467    3.3607 H         1 UNK         0.0600 
     47 H47         4.9732  -45.5996    1.9472 H         1 UNK         0.0600 
     48 H48         4.7685  -43.6543    4.6898 H         1 UNK         0.0600 
     49 H49         5.3914  -44.5176    6.0849 H         1 UNK         0.0600 
     50 H50         6.2149  -43.0777    5.5131 H         1 UNK         0.0600 
     51 H51         8.2921  -47.3035   -0.8523 H         1 UNK         0.0600 
     52 H52        10.0357  -47.5184   -0.9919 H         1 UNK         0.0600 
     53 H53         9.2715  -47.4848    0.6013 H         1 UNK         0.0600 
     54 H54         7.3870  -45.3468    0.0025 H         1 UNK         0.0600 
     55 H55         8.4133  -45.3334    1.4210 H         1 UNK         0.0600 
     56 H56        10.7768  -44.2774    0.5966 H         1 UNK         0.0600 
     57 H57        10.8310  -45.9086    1.1517 H         1 UNK         0.0600 
     58 H58        18.3751  -47.7417   -3.7424 H         1 UNK         0.0600 
     59 H59        18.6532  -47.3270   -5.4149 H         1 UNK         0.0600 
     60 H60        16.2889  -47.1053   -4.9545 H         1 UNK         0.0600 
     61 H61        16.9365  -45.5467   -5.3410 H         1 UNK         0.0600 
     62 H62         6.6888  -46.7784    3.3254 H         1 UNK         0.0600 
     63 H63         5.6435  -46.7387    4.7111 H         1 UNK         0.0600 
     64 H64         7.4161  -45.1349    4.9212 H         1 UNK         0.0600 
     65 H65         8.2072  -44.2182    3.1059 H         1 UNK         0.3000 
@<TRIPOS>BOND
     1    1    2 ar   
     2    1    3 ar   
     3    1   36 1    
     4    2    4 ar   
     5    2   37 1    
     6    3    7 ar   
     7    3   38 1    
     8    4    9 ar   
     9    4   39 1    
    10    5    6 ar   
    11    5   10 ar   
    12    5   40 1    
    13    6   11 ar   
    14    6   41 1    
    15    7    9 ar   
    16    7   13 1    
    17    8   10 ar   
    18    8   12 ar   
    19    8   14 1    
    20    9   21 1    
    21   10   22 1    
    22   11   12 ar   
    23   11   35 1    
    24   12   34 1    
    25   13   27 am   BACKBONE|DICT|INTERRES
    26   13   31 2    
    27   14   29 1    
    28   14   32 2    
    29   15   23 1    
    30   15   30 1    
    31   15   33 2    
    32   16   17 1    
    33   16   34 1    
    34   16   42 1    
    35   16   43 1    
    36   17   24 1    
    37   17   35 1    
    38   17   44 1    
    39   18   25 1    
    40   18   45 1    
    41   18   46 1    
    42   18   47 1    
    43   19   26 1    
    44   19   48 1    
    45   19   49 1    
    46   19   50 1    
    47   20   28 1    
    48   20   51 1    
    49   20   52 1    
    50   20   53 1    
    51   21   28 1    
    52   21   54 1    
    53   21   55 1    
    54   22   28 1    
    55   22   56 1    
    56   22   57 1    
    57   23   24 1    
    58   23   58 1    
    59   23   59 1    
    60   24   60 1    
    61   24   61 1    
    62   25   26 1    
    63   25   62 1    
    64   25   63 1    
    65   26   27 1    
    66   26   64 1    
    67   27   65 1    
@<TRIPOS>SUBSTRUCTURE
     1 UNK         1 GROUP             0       ****    0 ROOT    
