@<TRIPOS>MOLECULE
AVX38753_3
70   73    1
SMALL
USER_CHARGES


@<TRIPOS>ATOM
      1 C1         11.5534  -49.3963    5.7456 C.ar      1 UNK        -0.1150 
      2 C2          5.3540  -44.3934    2.5897 C.ar      1 UNK        -0.1150 
      3 C3         11.8067  -50.0745    4.5380 C.ar      1 UNK        -0.1150 
      4 C4         10.4435  -48.5361    5.8483 C.ar      1 UNK        -0.1150 
      5 C5          5.8216  -43.1855    2.0471 C.ar      1 UNK        -0.1150 
      6 C6          6.0087  -45.5989    2.2805 C.ar      1 UNK        -0.1150 
      7 C7         10.9526  -49.8903    3.4331 C.ar      1 UNK        -0.1150 
      8 C8          9.5899  -48.3508    4.7435 C.ar      1 UNK        -0.1150 
      9 C9          6.9330  -43.1900    1.1860 C.ar      1 UNK        -0.1150 
     10 C10        11.6214  -44.8229   -1.8653 C.ar      1 UNK        -0.1150 
     11 C11        12.5381  -45.0029   -2.9194 C.ar      1 UNK        -0.1150 
     12 C12         7.1312  -45.6185    1.4195 C.ar      1 UNK        -0.1150 
     13 C13        13.3029  -45.5875   -0.2719 C.ar      1 UNK        -0.1150 
     14 C14         9.8430  -49.0230    3.5265 C.ar      1 UNK        -0.1150 
     15 C15         7.5878  -44.3955    0.8449 C.ar      1 UNK        -0.1150 
     16 C16        12.0053  -45.1106   -0.5413 C.ar      1 UNK        -0.1150 
     17 C17        13.8410  -45.4686   -2.6555 C.ar      1 UNK         0.0850 
     18 C18        14.2207  -45.7806   -1.3228 C.ar      1 UNK         0.0850 
     19 C19         8.9076  -40.8246   -0.8115 C.2       1 UNK        -0.2300 
     20 C20         9.6007  -41.9088   -1.1894 C.2       1 UNK        -0.1150 
     21 C21         7.8219  -46.9326    1.1831 C.2       1 UNK         0.6150 
     22 C22        13.6935  -45.8940    1.1043 C.2       1 UNK         0.7150 
     23 C23        19.0714  -45.8328   -3.2103 C.2       1 UNK         0.7000 
     24 C24        16.1997  -46.7512   -2.1570 C.3       1 UNK         0.1400 
     25 C25        16.0851  -45.7509   -3.3178 C.3       1 UNK         0.1700 
     26 C26         8.9253  -48.8407    2.3277 C.3       1 UNK         0.1950 
     27 C27         8.7611  -44.3020   -0.1365 C.3       1 UNK         0.2050 
     28 C28        11.0167  -44.9115    0.5987 C.3       1 UNK         0.2050 
     29 C29        10.5857  -42.6461   -0.2933 C.3       1 UNK         0.0900 
     30 C30        18.2818  -46.7842   -4.1182 C.3       1 UNK        -0.2200 
     31 C31        16.8962  -46.2348   -4.5165 C.3       1 UNK        -0.1200 
     32 N32         8.2956  -47.5265    2.2878 N.am      1 UNK        -0.5000 
     33 N33        10.0489  -43.8308    0.3907 N.3       1 UNK        -0.6300 
     34 O34        14.9086  -45.8812    1.4018 O.co2     1 UNK        -0.8000 
     35 O35        20.2168  -45.4742   -3.5647 O.co2     1 UNK        -0.8000 
     36 O36         7.9221  -47.4117    0.0538 O.2       1 UNK        -0.5000 
     37 O37        12.8023  -46.1641    1.9398 O.co2     1 UNK        -0.8000 
     38 O38        18.5011  -45.4751   -2.1568 O.co2     1 UNK        -0.8000 
     39 O39        15.4763  -46.2619   -1.0302 O.3       1 UNK        -0.2850 
     40 O40        14.7190  -45.6203   -3.7042 O.3       1 UNK        -0.2850 
     41 H41        12.2071  -49.5388    6.5934 H         1 UNK         0.1150 
     42 H42         4.5006  -44.3952    3.2517 H         1 UNK         0.1150 
     43 H43        12.6555  -50.7376    4.4593 H         1 UNK         0.1150 
     44 H44        10.2436  -48.0201    6.7758 H         1 UNK         0.1150 
     45 H45         5.3266  -42.2562    2.2873 H         1 UNK         0.1150 
     46 H46         5.6487  -46.5148    2.7273 H         1 UNK         0.1150 
     47 H47        11.1546  -50.4177    2.5123 H         1 UNK         0.1150 
     48 H48         8.7363  -47.6960    4.8410 H         1 UNK         0.1150 
     49 H49         7.2742  -42.2546    0.7673 H         1 UNK         0.1150 
     50 H50        10.6254  -44.4605   -2.0727 H         1 UNK         0.1150 
     51 H51        12.2423  -44.7744   -3.9327 H         1 UNK         0.1150 
     52 H52         8.2212  -40.3409   -1.4908 H         1 UNK         0.1150 
     53 H53         9.0192  -40.4028    0.1765 H         1 UNK         0.1150 
     54 H54         9.4531  -42.2921   -2.1869 H         1 UNK         0.1150 
     55 H55        15.8157  -47.7287   -2.4489 H         1 UNK         0.0300 
     56 H56        17.2441  -46.8873   -1.8762 H         1 UNK         0.0300 
     57 H57        16.4846  -44.7780   -3.0314 H         1 UNK         0.0300 
     58 H58         8.1450  -49.6016    2.3666 H         1 UNK         0.0600 
     59 H59         9.4929  -49.0149    1.4119 H         1 UNK         0.0600 
     60 H60         8.4928  -43.6955   -0.9990 H         1 UNK         0.0600 
     61 H61         8.9244  -45.2969   -0.5524 H         1 UNK         0.0600 
     62 H62        11.6077  -44.6878    1.4870 H         1 UNK         0.0600 
     63 H63        10.4580  -45.8171    0.8189 H         1 UNK         0.0600 
     64 H64        11.0011  -41.9516    0.4373 H         1 UNK         0.0600 
     65 H65        11.4253  -42.9660   -0.9110 H         1 UNK         0.0600 
     66 H66        18.1722  -47.7376   -3.6006 H         1 UNK         0.0600 
     67 H67        18.8762  -46.9767   -5.0118 H         1 UNK         0.0600 
     68 H68        16.3341  -47.0171   -5.0289 H         1 UNK         0.0600 
     69 H69        17.0088  -45.4170   -5.2300 H         1 UNK         0.0600 
     70 H70         8.1815  -47.0494    3.1702 H         1 UNK         0.3000 
@<TRIPOS>BOND
     1    1    3 ar   
     2    1    4 ar   
     3    1   41 1    
     4    2    5 ar   
     5    2    6 ar   
     6    2   42 1    
     7    3    7 ar   
     8    3   43 1    
     9    4    8 ar   
    10    4   44 1    
    11    5    9 ar   
    12    5   45 1    
    13    6   12 ar   
    14    6   46 1    
    15    7   14 ar   
    16    7   47 1    
    17    8   14 ar   
    18    8   48 1    
    19    9   15 ar   
    20    9   49 1    
    21   10   11 ar   
    22   10   16 ar   
    23   10   50 1    
    24   11   17 ar   
    25   11   51 1    
    26   12   15 ar   
    27   12   21 1    
    28   13   16 ar   
    29   13   18 ar   
    30   13   22 1    
    31   14   26 1    
    32   15   27 1    
    33   16   28 1    
    34   17   18 ar   
    35   17   40 1    
    36   18   39 1    
    37   19   20 2    
    38   19   52 1    
    39   19   53 1    
    40   20   29 1    
    41   20   54 1    
    42   21   32 am   BACKBONE|DICT|INTERRES
    43   21   36 2    
    44   22   34 1    
    45   22   37 2    
    46   23   30 1    
    47   23   35 1    
    48   23   38 2    
    49   24   25 1    
    50   24   39 1    
    51   24   55 1    
    52   24   56 1    
    53   25   31 1    
    54   25   40 1    
    55   25   57 1    
    56   26   32 1    
    57   26   58 1    
    58   26   59 1    
    59   27   33 1    
    60   27   60 1    
    61   27   61 1    
    62   28   33 1    
    63   28   62 1    
    64   28   63 1    
    65   29   33 1    
    66   29   64 1    
    67   29   65 1    
    68   30   31 1    
    69   30   66 1    
    70   30   67 1    
    71   31   68 1    
    72   31   69 1    
    73   32   70 1    
@<TRIPOS>SUBSTRUCTURE
     1 UNK         1 GROUP             0       ****    0 ROOT    
