@<TRIPOS>MOLECULE
AVX38748_0
67   70    1
SMALL
USER_CHARGES


@<TRIPOS>ATOM
      1 C1          7.8160  -41.3100    0.7369 C.ar      1 UNK        -0.1150 
      2 C2          8.9664  -41.4709   -0.0691 C.ar      1 UNK        -0.1150 
      3 C3          7.2077  -42.4314    1.3354 C.ar      1 UNK        -0.1150 
      4 C4          9.5356  -42.7461   -0.2699 C.ar      1 UNK        -0.1150 
      5 C5         11.5348  -44.9434   -1.8103 C.ar      1 UNK        -0.1150 
      6 C6         12.4843  -44.6839   -2.8048 C.ar      1 UNK        -0.1150 
      7 C7         13.3004  -45.7171   -0.2708 C.ar      1 UNK        -0.1150 
      8 C8          7.7799  -43.6973    1.1126 C.ar      1 UNK        -0.1150 
      9 C9          8.9231  -43.8636    0.3318 C.ar      1 UNK        -0.1150 
     10 C10        11.9149  -45.4217   -0.5356 C.ar      1 UNK        -0.1150 
     11 C11        13.8355  -44.9539   -2.5702 C.ar      1 UNK         0.0850 
     12 C12        14.2483  -45.4747   -1.3168 C.ar      1 UNK         0.0850 
     13 C13        13.7899  -46.2540    1.0797 C.2       1 UNK         0.7150 
     14 C14         9.2753  -47.9312    2.5295 C.2       1 UNK         0.5000 
     15 C15        18.9672  -46.1981   -3.9837 C.2       1 UNK         0.7000 
     16 C16         7.2846  -44.9919    1.6846 C.3       1 UNK        -0.0050 
     17 C17        16.4785  -45.0775   -2.0061 C.3       1 UNK         0.1400 
     18 C18         9.3284  -45.3255    0.2401 C.3       1 UNK         0.0550 
     19 C19         8.3201  -46.0397    1.2089 C.3       1 UNK         0.1400 
     20 C20        16.0068  -45.3131   -3.4512 C.3       1 UNK         0.1700 
     21 C21        10.8266  -45.6508    0.5233 C.3       1 UNK        -0.0050 
     22 C22        10.2590  -48.2455    3.6567 C.3       1 UNK        -0.1200 
     23 C23        18.0432  -45.6490   -5.0672 C.3       1 UNK        -0.2200 
     24 C24        16.9449  -44.7093   -4.5185 C.3       1 UNK        -0.1200 
     25 C25        10.0328  -49.6215    4.3058 C.3       1 UNK        -0.1200 
     26 C26        11.0329  -49.9343    5.4356 C.3       1 UNK        -0.1200 
     27 C27        11.0709  -48.8957    6.5713 C.3       1 UNK         0.1900 
     28 N28         8.9758  -46.6334    2.3728 N.am      1 UNK        -0.5000 
     29 N29         9.7352  -48.6744    7.1475 N.4       1 UNK        -0.3000 
     30 O30        15.0140  -46.2742    1.3429 O.co2     1 UNK        -0.8000 
     31 O31        18.6692  -47.3017   -3.4780 O.co2     1 UNK        -0.8000 
     32 O32        12.9884  -46.6750    1.9453 O.co2     1 UNK        -0.8000 
     33 O33         8.8492  -48.8212    1.7933 O.2       1 UNK        -0.5000 
     34 O34        19.9348  -45.4743   -3.6512 O.co2     1 UNK        -0.8000 
     35 O35        15.5882  -45.7471   -1.1322 O.3       1 UNK        -0.2850 
     36 O36        14.7341  -44.6865   -3.5801 O.3       1 UNK        -0.2850 
     37 H37         7.4045  -40.3227    0.8914 H         1 UNK         0.1150 
     38 H38         9.4155  -40.6123   -0.5431 H         1 UNK         0.1150 
     39 H39         6.3272  -42.3199    1.9506 H         1 UNK         0.1150 
     40 H40        10.4228  -42.8356   -0.8737 H         1 UNK         0.1150 
     41 H41        10.5053  -44.7400   -2.0537 H         1 UNK         0.1150 
     42 H42        12.1676  -44.2873   -3.7561 H         1 UNK         0.1150 
     43 H43         7.2109  -44.9209    2.7715 H         1 UNK         0.0600 
     44 H44         6.2919  -45.2114    1.2892 H         1 UNK         0.0600 
     45 H45        17.4757  -45.4710   -1.8251 H         1 UNK         0.0300 
     46 H46        16.5072  -44.0122   -1.7681 H         1 UNK         0.0300 
     47 H47         9.0704  -45.6735   -0.7595 H         1 UNK         0.0600 
     48 H48         7.7901  -46.8195    0.6565 H         1 UNK         0.0600 
     49 H49        15.8819  -46.3790   -3.6412 H         1 UNK         0.0300 
     50 H50        11.1147  -45.1564    1.4509 H         1 UNK         0.0600 
     51 H51        10.8893  -46.7268    0.6762 H         1 UNK         0.0600 
     52 H52        11.2686  -48.1944    3.2456 H         1 UNK         0.0600 
     53 H53        10.1840  -47.4569    4.4037 H         1 UNK         0.0600 
     54 H54        17.5973  -46.4748   -5.6272 H         1 UNK         0.0600 
     55 H55        18.6538  -45.0988   -5.7830 H         1 UNK         0.0600 
     56 H56        16.3410  -44.4088   -5.3769 H         1 UNK         0.0600 
     57 H57        17.3876  -43.7860   -4.1467 H         1 UNK         0.0600 
     58 H58         9.0110  -49.6869    4.6826 H         1 UNK         0.0600 
     59 H59        10.1179  -50.4010    3.5455 H         1 UNK         0.0600 
     60 H60        10.8027  -50.9169    5.8509 H         1 UNK         0.0600 
     61 H61        12.0356  -50.0189    5.0114 H         1 UNK         0.0600 
     62 H62        11.7416  -49.2346    7.3601 H         1 UNK         0.0600 
     63 H63        11.4686  -47.9431    6.2197 H         1 UNK         0.0600 
     64 H64         9.3653  -45.9810    3.0442 H         1 UNK         0.3000 
     65 H65         9.8162  -47.9681    7.8794 H         1 UNK         0.3300 
     66 H66         9.1019  -48.3444    6.4340 H         1 UNK         0.3300 
     67 H67         9.3857  -49.5331    7.5481 H         1 UNK         0.3300 
@<TRIPOS>BOND
     1    1    2 ar   
     2    1    3 ar   
     3    1   37 1    
     4    2    4 ar   
     5    2   38 1    
     6    3    8 ar   
     7    3   39 1    
     8    4    9 ar   
     9    4   40 1    
    10    5    6 ar   
    11    5   10 ar   
    12    5   41 1    
    13    6   11 ar   
    14    6   42 1    
    15    7   10 ar   
    16    7   12 ar   
    17    7   13 1    
    18    8    9 ar   
    19    8   16 1    
    20    9   18 1    
    21   10   21 1    
    22   11   12 ar   
    23   11   36 1    
    24   12   35 1    
    25   13   30 1    
    26   13   32 2    
    27   14   22 1    
    28   14   28 am   BACKBONE|DICT|INTERRES
    29   14   33 2    
    30   15   23 1    
    31   15   31 1    
    32   15   34 2    
    33   16   19 1    
    34   16   43 1    
    35   16   44 1    
    36   17   20 1    
    37   17   35 1    
    38   17   45 1    
    39   17   46 1    
    40   18   19 1    
    41   18   21 1    
    42   18   47 1    
    43   19   28 1    
    44   19   48 1    
    45   20   24 1    
    46   20   36 1    
    47   20   49 1    
    48   21   50 1    
    49   21   51 1    
    50   22   25 1    
    51   22   52 1    
    52   22   53 1    
    53   23   24 1    
    54   23   54 1    
    55   23   55 1    
    56   24   56 1    
    57   24   57 1    
    58   25   26 1    
    59   25   58 1    
    60   25   59 1    
    61   26   27 1    
    62   26   60 1    
    63   26   61 1    
    64   27   29 1    
    65   27   62 1    
    66   27   63 1    
    67   28   64 1    
    68   29   65 1    
    69   29   66 1    
    70   29   67 1    
@<TRIPOS>SUBSTRUCTURE
     1 UNK         1 GROUP             0       ****    0 ROOT    
