@<TRIPOS>MOLECULE
AVX38787_1
73   76    1
SMALL
USER_CHARGES


@<TRIPOS>ATOM
      1 C1          5.4780  -43.0808    1.9475 C.ar      1 UNK        -0.1150 
      2 C2          6.5897  -42.7705    1.1514 C.ar      1 UNK        -0.1150 
      3 C3          5.4815  -44.2601    2.7095 C.ar      1 UNK        -0.1150 
      4 C4          7.7010  -43.6310    1.1282 C.ar      1 UNK        -0.1150 
      5 C5         11.6605  -44.3444   -1.7030 C.ar      1 UNK        -0.1150 
      6 C6         12.6204  -44.3558   -2.7208 C.ar      1 UNK        -0.1150 
      7 C7          6.5998  -45.1234    2.7102 C.ar      1 UNK        -0.1150 
      8 C8         13.1713  -45.6097   -0.2358 C.ar      1 UNK        -0.1150 
      9 C9          7.7401  -44.8206    1.9013 C.ar      1 UNK        -0.1150 
     10 C10        11.9257  -44.9512   -0.4589 C.ar      1 UNK        -0.1150 
     11 C11        13.8753  -44.9454   -2.5040 C.ar      1 UNK         0.0850 
     12 C12        14.1627  -45.5614   -1.2587 C.ar      1 UNK         0.0850 
     13 C13         6.5150  -46.3443    3.5803 C.2       1 UNK         0.6150 
     14 C14        13.4583  -46.2993    1.0783 C.2       1 UNK         0.7150 
     15 C15        19.1750  -46.3412   -3.7576 C.2       1 UNK         0.7000 
     16 C16        11.0355  -50.1990    5.5296 C.3       1 UNK        -0.1200 
     17 C17        11.0206  -49.0332    4.5311 C.3       1 UNK        -0.1200 
     18 C18         9.6318  -50.8004    5.6911 C.3       1 UNK        -0.1200 
     19 C19        10.0015  -47.9584    4.9449 C.3       1 UNK        -0.1200 
     20 C20         8.6101  -49.7263    6.0999 C.3       1 UNK        -0.1200 
     21 C21        16.4364  -45.5373   -1.8698 C.3       1 UNK         0.1400 
     22 C22         8.5809  -48.5503    5.1022 C.3       1 UNK        -0.0600 
     23 C23        15.9998  -45.6378   -3.3432 C.3       1 UNK         0.1700 
     24 C24         9.1334  -46.1154   -0.5432 C.3       1 UNK         0.0900 
     25 C25         8.9903  -45.7320    1.9179 C.3       1 UNK         0.2650 
     26 C26        10.8859  -44.7470    0.6382 C.3       1 UNK         0.2650 
     27 C27        18.1070  -46.0940   -4.8164 C.3       1 UNK        -0.2200 
     28 C28         7.5365  -47.4994    5.5338 C.3       1 UNK         0.0800 
     29 C29        17.0235  -45.0932   -4.3622 C.3       1 UNK        -0.1200 
     30 N30         7.4159  -46.4111    4.5689 N.am      1 UNK        -0.5000 
     31 N31         9.8603  -45.8193    0.7135 N.4       1 UNK        -0.1000 
     32 O32        12.5151  -46.8591    1.6860 O.co2     1 UNK        -0.8000 
     33 O33        19.0752  -47.3794   -3.0724 O.co2     1 UNK        -0.8000 
     34 O34         5.6421  -47.1887    3.3890 O.2       1 UNK        -0.5000 
     35 O35        14.6161  -46.2740    1.5476 O.co2     1 UNK        -0.8000 
     36 O36        20.0695  -45.4743   -3.6431 O.co2     1 UNK        -0.8000 
     37 O37        15.4151  -46.0970   -1.0546 O.3       1 UNK        -0.2850 
     38 O38        14.8090  -44.8718   -3.5134 O.3       1 UNK        -0.2850 
     39 H39         4.6164  -42.4304    1.9623 H         1 UNK         0.1150 
     40 H40         6.5855  -41.8724    0.5515 H         1 UNK         0.1150 
     41 H41         4.6175  -44.4958    3.3146 H         1 UNK         0.1150 
     42 H42         8.5051  -43.3361    0.4844 H         1 UNK         0.1150 
     43 H43        10.7222  -43.8372   -1.8763 H         1 UNK         0.1150 
     44 H44        12.4036  -43.8752   -3.6603 H         1 UNK         0.1150 
     45 H45        11.7347  -50.9668    5.1963 H         1 UNK         0.0600 
     46 H46        11.3991  -49.8482    6.4967 H         1 UNK         0.0600 
     47 H47        12.0179  -48.6007    4.4581 H         1 UNK         0.0600 
     48 H48        10.7765  -49.4055    3.5354 H         1 UNK         0.0600 
     49 H49         9.3216  -51.2631    4.7532 H         1 UNK         0.0600 
     50 H50         9.6523  -51.5964    6.4366 H         1 UNK         0.0600 
     51 H51        10.3169  -47.4922    5.8806 H         1 UNK         0.0600 
     52 H52        10.0086  -47.1691    4.1972 H         1 UNK         0.0600 
     53 H53         7.6203  -50.1782    6.1743 H         1 UNK         0.0600 
     54 H54         8.8549  -49.3559    7.0970 H         1 UNK         0.0600 
     55 H55        17.3529  -46.0885   -1.6753 H         1 UNK         0.0300 
     56 H56        16.6213  -44.5014   -1.5805 H         1 UNK         0.0300 
     57 H57         8.2722  -48.9455    4.1328 H         1 UNK         0.0600 
     58 H58        15.7830  -46.6745   -3.5899 H         1 UNK         0.0300 
     59 H59         9.8199  -46.4884   -1.3031 H         1 UNK         0.0600 
     60 H60         8.3844  -46.8910   -0.3787 H         1 UNK         0.0600 
     61 H61         8.6303  -45.2341   -0.9408 H         1 UNK         0.0600 
     62 H62         9.6174  -45.4303    2.7476 H         1 UNK         0.0600 
     63 H63         8.6901  -46.7602    2.1179 H         1 UNK         0.0600 
     64 H64        10.4533  -43.7645    0.4890 H         1 UNK         0.0600 
     65 H65        11.3819  -44.6735    1.6056 H         1 UNK         0.0600 
     66 H66        17.6581  -47.0388   -5.1241 H         1 UNK         0.0600 
     67 H67        18.6154  -45.6977   -5.6943 H         1 UNK         0.0600 
     68 H68         6.5665  -47.9749    5.6892 H         1 UNK         0.0600 
     69 H69         7.8169  -47.0734    6.4978 H         1 UNK         0.0600 
     70 H70        16.4818  -44.8040   -5.2643 H         1 UNK         0.0600 
     71 H71        17.4723  -44.1717   -3.9923 H         1 UNK         0.0600 
     72 H72         8.0857  -45.6544    4.6606 H         1 UNK         0.3000 
     73 H73        10.4381  -46.6343    0.8948 H         1 UNK         0.2900 
@<TRIPOS>BOND
     1    1    2 ar   
     2    1    3 ar   
     3    1   39 1    
     4    2    4 ar   
     5    2   40 1    
     6    3    7 ar   
     7    3   41 1    
     8    4    9 ar   
     9    4   42 1    
    10    5    6 ar   
    11    5   10 ar   
    12    5   43 1    
    13    6   11 ar   
    14    6   44 1    
    15    7    9 ar   
    16    7   13 1    
    17    8   10 ar   
    18    8   12 ar   
    19    8   14 1    
    20    9   25 1    
    21   10   26 1    
    22   11   12 ar   
    23   11   38 1    
    24   12   37 1    
    25   13   30 am   BACKBONE|DICT|INTERRES
    26   13   34 2    
    27   14   32 1    
    28   14   35 2    
    29   15   27 1    
    30   15   33 1    
    31   15   36 2    
    32   16   17 1    
    33   16   18 1    
    34   16   45 1    
    35   16   46 1    
    36   17   19 1    
    37   17   47 1    
    38   17   48 1    
    39   18   20 1    
    40   18   49 1    
    41   18   50 1    
    42   19   22 1    
    43   19   51 1    
    44   19   52 1    
    45   20   22 1    
    46   20   53 1    
    47   20   54 1    
    48   21   23 1    
    49   21   37 1    
    50   21   55 1    
    51   21   56 1    
    52   22   28 1    
    53   22   57 1    
    54   23   29 1    
    55   23   38 1    
    56   23   58 1    
    57   24   31 1    
    58   24   59 1    
    59   24   60 1    
    60   24   61 1    
    61   25   31 1    
    62   25   62 1    
    63   25   63 1    
    64   26   31 1    
    65   26   64 1    
    66   26   65 1    
    67   27   29 1    
    68   27   66 1    
    69   27   67 1    
    70   28   30 1    
    71   28   68 1    
    72   28   69 1    
    73   29   70 1    
    74   29   71 1    
    75   30   72 1    
    76   31   73 1    
@<TRIPOS>SUBSTRUCTURE
     1 UNK         1 GROUP             0       ****    0 ROOT    
