@<TRIPOS>MOLECULE
AVX38779_1
70   72    1
SMALL
USER_CHARGES


@<TRIPOS>ATOM
      1 C1          8.3727  -41.0881    0.0147 C.ar      1 UNK        -0.1150 
      2 C2          9.2787  -41.5361   -0.9431 C.ar      1 UNK        -0.1150 
      3 C3          7.6195  -42.0088    0.7397 C.ar      1 UNK        -0.1150 
      4 C4          9.4394  -42.9052   -1.1738 C.ar      1 UNK        -0.1150 
      5 C5         11.6801  -44.5884   -1.7057 C.ar      1 UNK        -0.1150 
      6 C6         12.6196  -44.4653   -2.7478 C.ar      1 UNK        -0.1150 
      7 C7          7.7863  -43.3831    0.5154 C.ar      1 UNK        -0.1150 
      8 C8         13.3860  -45.6017   -0.2866 C.ar      1 UNK        -0.1150 
      9 C9          8.7027  -43.8554   -0.4422 C.ar      1 UNK        -0.1150 
     10 C10        12.0620  -45.1608   -0.4771 C.ar      1 UNK        -0.1150 
     11 C11        13.9424  -44.9147   -2.5678 C.ar      1 UNK         0.0850 
     12 C12        14.3335  -45.4711   -1.3207 C.ar      1 UNK         0.0850 
     13 C13         8.3809  -48.9938   -1.2778 C.2       1 UNK        -0.2300 
     14 C14         8.7151  -48.2614   -0.2063 C.2       1 UNK        -0.1150 
     15 C15         6.8959  -44.2904    1.2706 C.2       1 UNK         0.6150 
     16 C16        13.7801  -46.1869    0.9951 C.2       1 UNK         0.7150 
     17 C17        19.1677  -46.2246   -3.5559 C.2       1 UNK         0.7000 
     18 C18        16.5756  -45.4154   -2.0450 C.3       1 UNK         0.1400 
     19 C19        16.0177  -45.5766   -3.4677 C.3       1 UNK         0.1700 
     20 C20         3.0232  -44.7788    3.9525 C.3       1 UNK        -0.1800 
     21 C21         5.8007  -44.1714    4.7660 C.3       1 UNK        -0.1800 
     22 C22         8.9113  -45.3258   -0.7092 C.3       1 UNK         0.2650 
     23 C23        11.0458  -45.2986    0.6476 C.3       1 UNK         0.2650 
     24 C24         9.9864  -47.4825   -0.0696 C.3       1 UNK         0.1500 
     25 C25        18.1667  -46.1336   -4.6992 C.3       1 UNK        -0.2200 
     26 C26        17.0454  -45.1123   -4.4958 C.3       1 UNK        -0.1200 
     27 C27         4.0225  -44.2373    2.9409 C.3       1 UNK        -0.1200 
     28 C28         5.4865  -44.5183    3.3127 C.3       1 UNK         0.1400 
     29 N29         6.3685  -43.7692    2.4223 N.am      1 UNK        -0.5000 
     30 N30         9.7897  -46.0394    0.2829 N.4       1 UNK        -0.1000 
     31 O31         6.6722  -45.4145    0.8352 O.2       1 UNK        -0.5000 
     32 O32        15.0324  -46.2858    1.2066 O.co2     1 UNK        -0.8000 
     33 O33        18.8985  -46.9847   -2.5893 O.co2     1 UNK        -0.8000 
     34 O34        15.6232  -45.8972   -1.0999 O.3       1 UNK        -0.2850 
     35 O35        14.8339  -44.7948   -3.6092 O.3       1 UNK        -0.2850 
     36 O36        12.8827  -46.6155    1.7836 O.co2     1 UNK        -0.8000 
     37 O37        20.2058  -45.5116   -3.6832 O.co2     1 UNK        -0.8000 
     38 H38         8.2459  -40.0213    0.1889 H         1 UNK         0.1150 
     39 H39         9.8605  -40.8168   -1.5176 H         1 UNK         0.1150 
     40 H40         6.8989  -41.6545    1.4744 H         1 UNK         0.1150 
     41 H41        10.1480  -43.2214   -1.9395 H         1 UNK         0.1150 
     42 H42        10.6658  -44.2470   -1.8509 H         1 UNK         0.1150 
     43 H43        12.3212  -44.0323   -3.6911 H         1 UNK         0.1150 
     44 H44         7.4301  -49.5197   -1.3164 H         1 UNK         0.1150 
     45 H45         9.0318  -49.0885   -2.1430 H         1 UNK         0.1150 
     46 H46         8.0066  -48.1911    0.6155 H         1 UNK         0.1150 
     47 H47        17.5014  -45.9801   -1.9352 H         1 UNK         0.0300 
     48 H48        16.8096  -44.3713   -1.8370 H         1 UNK         0.0300 
     49 H49        15.7994  -46.6229   -3.6817 H         1 UNK         0.0300 
     50 H50         3.1748  -45.8497    4.1205 H         1 UNK         0.0600 
     51 H51         3.1029  -44.2614    4.9128 H         1 UNK         0.0600 
     52 H52         2.0022  -44.6354    3.5842 H         1 UNK         0.0600 
     53 H53         5.2309  -44.7967    5.4596 H         1 UNK         0.0600 
     54 H54         6.8635  -44.3255    4.9827 H         1 UNK         0.0600 
     55 H55         5.5679  -43.1226    4.9801 H         1 UNK         0.0600 
     56 H56         9.3552  -45.4701   -1.7026 H         1 UNK         0.0600 
     57 H57         7.9406  -45.8356   -0.7263 H         1 UNK         0.0600 
     58 H58        11.5334  -45.8311    1.4708 H         1 UNK         0.0600 
     59 H59        10.7456  -44.3172    1.0343 H         1 UNK         0.0600 
     60 H60        10.5664  -47.5363   -0.9970 H         1 UNK         0.0600 
     61 H61        10.6245  -47.9111    0.7118 H         1 UNK         0.0600 
     62 H62        17.7262  -47.1289   -4.8418 H         1 UNK         0.0600 
     63 H63        18.7253  -45.8922   -5.6124 H         1 UNK         0.0600 
     64 H64        16.5471  -44.9417   -5.4588 H         1 UNK         0.0600 
     65 H65        17.4756  -44.1557   -4.1752 H         1 UNK         0.0600 
     66 H66         3.8633  -43.1587    2.8176 H         1 UNK         0.0600 
     67 H67         3.8073  -44.6930    1.9658 H         1 UNK         0.0600 
     68 H68         5.6902  -45.5857    3.1626 H         1 UNK         0.0600 
     69 H69         6.6132  -42.8050    2.6979 H         1 UNK         0.3000 
     70 H70         9.2609  -46.0518    1.1840 H         1 UNK         0.2900 
@<TRIPOS>BOND
     1    1    2 ar   
     2    1    3 ar   
     3    1   38 1    
     4    2    4 ar   
     5    2   39 1    
     6    3    7 ar   
     7    3   40 1    
     8    4    9 ar   
     9    4   41 1    
    10    5    6 ar   
    11    5   10 ar   
    12    5   42 1    
    13    6   11 ar   
    14    6   43 1    
    15    7    9 ar   
    16    7   15 1    
    17    8   10 ar   
    18    8   12 ar   
    19    8   16 1    
    20    9   22 1    
    21   10   23 1    
    22   11   12 ar   
    23   11   35 1    
    24   12   34 1    
    25   13   14 2    
    26   13   44 1    
    27   13   45 1    
    28   14   24 1    
    29   14   46 1    
    30   15   29 am   BACKBONE|DICT|INTERRES
    31   15   31 2    
    32   16   32 2    
    33   16   36 1    
    34   17   25 1    
    35   17   33 2    
    36   17   37 1    
    37   18   19 1    
    38   18   34 1    
    39   18   47 1    
    40   18   48 1    
    41   19   26 1    
    42   19   35 1    
    43   19   49 1    
    44   20   27 1    
    45   20   50 1    
    46   20   51 1    
    47   20   52 1    
    48   21   28 1    
    49   21   53 1    
    50   21   54 1    
    51   21   55 1    
    52   22   30 1    
    53   22   56 1    
    54   22   57 1    
    55   23   30 1    
    56   23   58 1    
    57   23   59 1    
    58   24   30 1    
    59   24   60 1    
    60   24   61 1    
    61   25   26 1    
    62   25   62 1    
    63   25   63 1    
    64   26   64 1    
    65   26   65 1    
    66   27   28 1    
    67   27   66 1    
    68   27   67 1    
    69   28   29 1    
    70   28   68 1    
    71   29   69 1    
    72   30   70 1    
@<TRIPOS>SUBSTRUCTURE
     1 UNK         1 GROUP             0       ****    0 ROOT    
