@<TRIPOS>MOLECULE
AVX38783_1
67   70    1
SMALL
USER_CHARGES


@<TRIPOS>ATOM
      1 C1          8.9436  -41.0983   -0.5285 C.ar      1 UNK        -0.1150 
      2 C2          9.7811  -41.7278   -1.4620 C.ar      1 UNK        -0.1150 
      3 C3          2.5246  -44.6418    2.1958 C.2       1 UNK        -0.1540 
      4 C4          8.1626  -41.8763    0.3448 C.ar      1 UNK        -0.1150 
      5 C5          9.8340  -43.1312   -1.5152 C.ar      1 UNK        -0.1150 
      6 C6         11.5842  -44.6900   -1.6260 C.ar      1 UNK        -0.1150 
      7 C7         12.5030  -44.5428   -2.6834 C.ar      1 UNK        -0.1150 
      8 C8          3.7010  -43.8633    2.0087 C.2       1 UNK        -0.1540 
      9 C9          2.7799  -45.4723    3.2521 C.2       1 UNK        -0.0190 
     10 C10         8.2069  -43.2915    0.3155 C.ar      1 UNK        -0.1150 
     11 C11        13.3558  -45.5909   -0.2114 C.ar      1 UNK        -0.1150 
     12 C12         9.0670  -43.9280   -0.6335 C.ar      1 UNK        -0.1150 
     13 C13        12.0095  -45.2184   -0.3919 C.ar      1 UNK        -0.1150 
     14 C14        13.8483  -44.9241   -2.5132 C.ar      1 UNK         0.0850 
     15 C15        14.2822  -45.4355   -1.2611 C.ar      1 UNK         0.0850 
     16 C16         4.5817  -44.2877    2.9646 C.2       1 UNK         0.0080 
     17 C17        12.2836  -48.3079   -1.2088 C.2       1 UNK        -0.2300 
     18 C18        11.6302  -47.7814   -0.1604 C.2       1 UNK        -0.1150 
     19 C19         7.3112  -44.0329    1.2807 C.2       1 UNK         0.6150 
     20 C20        13.7945  -46.1304    1.0758 C.2       1 UNK         0.7150 
     21 C21        19.0811  -46.2112   -3.6752 C.2       1 UNK         0.7000 
     22 C22        16.5092  -45.2863   -2.0178 C.3       1 UNK         0.1400 
     23 C23        15.9413  -45.5030   -3.4291 C.3       1 UNK         0.1700 
     24 C24         9.1806  -45.4439   -0.8040 C.3       1 UNK         0.2050 
     25 C25        11.0160  -45.3823    0.7494 C.3       1 UNK         0.2050 
     26 C26         5.9845  -43.9047    3.3793 C.3       1 UNK         0.1950 
     27 C27        10.1410  -47.4835   -0.0566 C.3       1 UNK         0.0900 
     28 C28        18.0674  -46.0084   -4.8012 C.3       1 UNK        -0.2200 
     29 C29        16.9317  -45.0105   -4.4803 C.3       1 UNK        -0.1200 
     30 N30         6.7102  -43.3412    2.2494 N.am      1 UNK        -0.5000 
     31 N31         9.7953  -46.1114    0.3542 N.3       1 UNK        -0.6300 
     32 O32        12.9531  -46.4345    1.9478 O.co2     1 UNK        -0.8000 
     33 O33        20.0851  -45.4729   -3.6541 O.co2     1 UNK        -0.8000 
     34 O34         7.1124  -45.2406    1.1254 O.2       1 UNK        -0.5000 
     35 O35        15.0068  -46.3142    1.3131 O.co2     1 UNK        -0.8000 
     36 O36        18.8642  -47.0777   -2.8050 O.co2     1 UNK        -0.8000 
     37 O37         4.0363  -45.2648    3.7384 O.3       1 UNK        -0.1900 
     38 O38        15.5938  -45.7944   -1.0501 O.3       1 UNK        -0.2850 
     39 O39        14.7192  -44.7823   -3.5692 O.3       1 UNK        -0.2850 
     40 H40         8.8951  -40.0187   -0.4844 H         1 UNK         0.1150 
     41 H41        10.3797  -41.1355   -2.1406 H         1 UNK         0.1150 
     42 H42         1.6031  -44.5985    1.6312 H         1 UNK         0.1260 
     43 H43         7.5189  -41.3712    1.0527 H         1 UNK         0.1150 
     44 H44        10.4791  -43.6009   -2.2454 H         1 UNK         0.1150 
     45 H45        10.5528  -44.4010   -1.7636 H         1 UNK         0.1150 
     46 H46        12.1715  -44.1438   -3.6307 H         1 UNK         0.1150 
     47 H47         3.8809  -43.0904    1.2744 H         1 UNK         0.1260 
     48 H48         2.2031  -46.2324    3.7628 H         1 UNK         0.1420 
     49 H49        13.3492  -48.4802   -1.1693 H         1 UNK         0.1150 
     50 H50        11.7733  -48.5743   -2.1207 H         1 UNK         0.1150 
     51 H51        12.2034  -47.5334    0.7227 H         1 UNK         0.1150 
     52 H52        17.4627  -45.8034   -1.9099 H         1 UNK         0.0300 
     53 H53        16.6950  -44.2282   -1.8335 H         1 UNK         0.0300 
     54 H54        15.7712  -46.5627   -3.6195 H         1 UNK         0.0300 
     55 H55         9.7472  -45.6729   -1.7094 H         1 UNK         0.0600 
     56 H56         8.1760  -45.8313   -0.9836 H         1 UNK         0.0600 
     57 H57        11.5649  -45.9480    1.5013 H         1 UNK         0.0600 
     58 H58        10.7586  -44.4474    1.2435 H         1 UNK         0.0600 
     59 H59         6.4942  -44.7772    3.7912 H         1 UNK         0.0600 
     60 H60         5.9369  -43.1634    4.1769 H         1 UNK         0.0600 
     61 H61         9.7710  -48.2056    0.6738 H         1 UNK         0.0600 
     62 H62         9.6522  -47.7502   -0.9956 H         1 UNK         0.0600 
     63 H63        17.6385  -46.9727   -5.0791 H         1 UNK         0.0600 
     64 H64        18.6125  -45.6566   -5.6782 H         1 UNK         0.0600 
     65 H65        16.3917  -44.7824   -5.3995 H         1 UNK         0.0600 
     66 H66        17.3656  -44.0648   -4.1529 H         1 UNK         0.0600 
     67 H67         6.7805  -42.3242    2.1986 H         1 UNK         0.3000 
@<TRIPOS>BOND
     1    1    2 ar   
     2    1    4 ar   
     3    1   40 1    
     4    2    5 ar   
     5    2   41 1    
     6    3    8 1    
     7    3    9 2    
     8    3   42 1    
     9    4   10 ar   
    10    4   43 1    
    11    5   12 ar   
    12    5   44 1    
    13    6    7 ar   
    14    6   13 ar   
    15    6   45 1    
    16    7   14 ar   
    17    7   46 1    
    18    8   16 2    
    19    8   47 1    
    20    9   37 1    
    21    9   48 1    
    22   10   12 ar   
    23   10   19 1    
    24   11   13 ar   
    25   11   15 ar   
    26   11   20 1    
    27   12   24 1    
    28   13   25 1    
    29   14   15 ar   
    30   14   39 1    
    31   15   38 1    
    32   16   26 1    
    33   16   37 1    
    34   17   18 2    
    35   17   49 1    
    36   17   50 1    
    37   18   27 1    
    38   18   51 1    
    39   19   30 am   BACKBONE|DICT|INTERRES
    40   19   34 2    
    41   20   32 1    
    42   20   35 2    
    43   21   28 1    
    44   21   33 1    
    45   21   36 2    
    46   22   23 1    
    47   22   38 1    
    48   22   52 1    
    49   22   53 1    
    50   23   29 1    
    51   23   39 1    
    52   23   54 1    
    53   24   31 1    
    54   24   55 1    
    55   24   56 1    
    56   25   31 1    
    57   25   57 1    
    58   25   58 1    
    59   26   30 1    
    60   26   59 1    
    61   26   60 1    
    62   27   31 1    
    63   27   61 1    
    64   27   62 1    
    65   28   29 1    
    66   28   63 1    
    67   28   64 1    
    68   29   65 1    
    69   29   66 1    
    70   30   67 1    
@<TRIPOS>SUBSTRUCTURE
     1 UNK         1 GROUP             0       ****    0 ROOT    
