@<TRIPOS>MOLECULE
AVX38789_1
64   67    1
SMALL
USER_CHARGES


@<TRIPOS>ATOM
      1 C1          8.6236  -40.5571   -0.5749 C.ar      1 UNK        -0.1150 
      2 C2          9.5743  -41.2656   -1.3263 C.ar      1 UNK        -0.1150 
      3 C3          3.2772  -44.9991    3.2320 C.2       1 UNK        -0.1540 
      4 C4          7.8100  -41.2402    0.3462 C.ar      1 UNK        -0.1150 
      5 C5          9.7082  -42.6538   -1.1516 C.ar      1 UNK        -0.1150 
      6 C6         11.4365  -45.0217   -1.2963 C.ar      1 UNK        -0.1150 
      7 C7         12.2920  -44.6435   -2.3493 C.ar      1 UNK        -0.1150 
      8 C8          4.3043  -44.1122    2.8070 C.2       1 UNK        -0.1540 
      9 C9          3.6317  -45.4103    4.4844 C.2       1 UNK        -0.0190 
     10 C10         7.9172  -42.6392    0.5238 C.ar      1 UNK        -0.1150 
     11 C11        13.3400  -45.9430   -0.0801 C.ar      1 UNK        -0.1150 
     12 C12         8.8919  -43.3578   -0.2371 C.ar      1 UNK        -0.1150 
     13 C13        11.9597  -45.6756   -0.1641 C.ar      1 UNK        -0.1150 
     14 C14        13.6716  -44.9183   -2.2768 C.ar      1 UNK         0.0850 
     15 C15        14.2027  -45.5572   -1.1247 C.ar      1 UNK         0.0850 
     16 C16         5.2102  -44.0462    3.8294 C.2       1 UNK         0.0080 
     17 C17         7.0268  -43.2699    1.5632 C.2       1 UNK         0.6150 
     18 C18        13.8798  -46.6140    1.1026 C.2       1 UNK         0.7150 
     19 C19        18.6006  -46.0947   -4.0028 C.2       1 UNK         0.7000 
     20 C20        16.3731  -45.0976   -1.9201 C.3       1 UNK         0.1400 
     21 C21        15.7654  -45.1667   -3.3298 C.3       1 UNK         0.1700 
     22 C22        10.0172  -44.1179    2.1076 C.3       1 UNK         0.0900 
     23 C23         9.1422  -44.8619   -0.1176 C.3       1 UNK         0.2650 
     24 C24        11.0350  -46.0889    0.9720 C.3       1 UNK         0.2650 
     25 C25         6.4943  -43.2896    3.9994 C.3       1 UNK         0.1950 
     26 C26        17.6857  -45.3788   -5.0043 C.3       1 UNK        -0.2200 
     27 C27        16.6622  -44.4423   -4.3296 C.3       1 UNK        -0.1200 
     28 N28         7.0100  -42.6882    2.7727 N.am      1 UNK        -0.5000 
     29 N29         9.8249  -45.2362    1.1533 N.4       1 UNK        -0.1000 
     30 O30        15.0079  -46.2720    1.5211 O.co2     1 UNK        -0.8000 
     31 O31        18.2748  -47.2327   -3.5966 O.co2     1 UNK        -0.8000 
     32 O32         6.4053  -44.3002    1.3041 O.2       1 UNK        -0.5000 
     33 O33        13.1866  -47.4818    1.6764 O.co2     1 UNK        -0.8000 
     34 O34        19.6290  -45.4750   -3.6546 O.co2     1 UNK        -0.8000 
     35 O35         4.8152  -44.8524    4.8582 O.3       1 UNK        -0.1900 
     36 O36        15.5486  -45.8186   -1.0074 O.3       1 UNK        -0.2850 
     37 O37        14.4800  -44.5501   -3.3278 O.3       1 UNK        -0.2850 
     38 H38         8.5215  -39.4890   -0.6992 H         1 UNK         0.1150 
     39 H39        10.2055  -40.7441   -2.0308 H         1 UNK         0.1150 
     40 H40         2.3924  -45.2995    2.6904 H         1 UNK         0.1260 
     41 H41         7.0906  -40.6750    0.9219 H         1 UNK         0.1150 
     42 H42        10.4531  -43.1822   -1.7287 H         1 UNK         0.1150 
     43 H43        10.3787  -44.8134   -1.3594 H         1 UNK         0.1150 
     44 H44        11.8859  -44.1486   -3.2192 H         1 UNK         0.1150 
     45 H45         4.3718  -43.5839    1.8675 H         1 UNK         0.1260 
     46 H46         3.1869  -46.0772    5.2079 H         1 UNK         0.1420 
     47 H47        17.3720  -45.5338   -1.9166 H         1 UNK         0.0300 
     48 H48        16.4733  -44.0629   -1.5920 H         1 UNK         0.0300 
     49 H49        15.6807  -46.2006   -3.6646 H         1 UNK         0.0300 
     50 H50        10.6234  -43.3239    1.6796 H         1 UNK         0.0600 
     51 H51         9.0633  -43.6847    2.4081 H         1 UNK         0.0600 
     52 H52        10.5066  -44.4656    3.0179 H         1 UNK         0.0600 
     53 H53         9.6720  -45.2624   -0.9779 H         1 UNK         0.0600 
     54 H54         8.1682  -45.3528   -0.1352 H         1 UNK         0.0600 
     55 H55        11.5674  -46.2108    1.9130 H         1 UNK         0.0600 
     56 H56        10.6728  -47.0942    0.7532 H         1 UNK         0.0600 
     57 H57         7.2562  -43.9463    4.4213 H         1 UNK         0.0600 
     58 H58         6.3430  -42.4897    4.7247 H         1 UNK         0.0600 
     59 H59        17.1661  -46.1334   -5.5956 H         1 UNK         0.0600 
     60 H60        18.3132  -44.8139   -5.6942 H         1 UNK         0.0600 
     61 H61        16.0402  -43.9611   -5.0862 H         1 UNK         0.0600 
     62 H62        17.1943  -43.6424   -3.8123 H         1 UNK         0.0600 
     63 H63         7.3911  -41.7587    2.8560 H         1 UNK         0.3000 
     64 H64         9.1700  -45.8412    1.6274 H         1 UNK         0.2900 
@<TRIPOS>BOND
     1    1    2 ar   
     2    1    4 ar   
     3    1   38 1    
     4    2    5 ar   
     5    2   39 1    
     6    3    8 1    
     7    3    9 2    
     8    3   40 1    
     9    4   10 ar   
    10    4   41 1    
    11    5   12 ar   
    12    5   42 1    
    13    6    7 ar   
    14    6   13 ar   
    15    6   43 1    
    16    7   14 ar   
    17    7   44 1    
    18    8   16 2    
    19    8   45 1    
    20    9   35 1    
    21    9   46 1    
    22   10   12 ar   
    23   10   17 1    
    24   11   13 ar   
    25   11   15 ar   
    26   11   18 1    
    27   12   23 1    
    28   13   24 1    
    29   14   15 ar   
    30   14   37 1    
    31   15   36 1    
    32   16   25 1    
    33   16   35 1    
    34   17   28 am   BACKBONE|DICT|INTERRES
    35   17   32 2    
    36   18   30 1    
    37   18   33 2    
    38   19   26 1    
    39   19   31 1    
    40   19   34 2    
    41   20   21 1    
    42   20   36 1    
    43   20   47 1    
    44   20   48 1    
    45   21   27 1    
    46   21   37 1    
    47   21   49 1    
    48   22   29 1    
    49   22   50 1    
    50   22   51 1    
    51   22   52 1    
    52   23   29 1    
    53   23   53 1    
    54   23   54 1    
    55   24   29 1    
    56   24   55 1    
    57   24   56 1    
    58   25   28 1    
    59   25   57 1    
    60   25   58 1    
    61   26   27 1    
    62   26   59 1    
    63   26   60 1    
    64   27   61 1    
    65   27   62 1    
    66   28   63 1    
    67   29   64 1    
@<TRIPOS>SUBSTRUCTURE
     1 UNK         1 GROUP             0       ****    0 ROOT    
