@<TRIPOS>MOLECULE
AVX38747_0
70   73    1
SMALL
USER_CHARGES


@<TRIPOS>ATOM
      1 C1          7.9046  -41.2604    0.5779 C.ar      1 UNK        -0.1150 
      2 C2          8.9832  -41.5627   -0.2831 C.ar      1 UNK        -0.1150 
      3 C3          7.3241  -42.2718    1.3693 C.ar      1 UNK        -0.1150 
      4 C4          9.4913  -42.8781   -0.3643 C.ar      1 UNK        -0.1150 
      5 C5         11.3314  -45.2771   -1.7715 C.ar      1 UNK        -0.1150 
      6 C6         12.2707  -45.0743   -2.7973 C.ar      1 UNK        -0.1150 
      7 C7         13.1314  -45.8434   -0.2091 C.ar      1 UNK        -0.1150 
      8 C8          7.8396  -43.5751    1.2730 C.ar      1 UNK        -0.1150 
      9 C9          8.8969  -43.8891    0.4208 C.ar      1 UNK        -0.1150 
     10 C10        11.7380  -45.6233   -0.4608 C.ar      1 UNK        -0.1150 
     11 C11        13.6400  -45.2623   -2.5524 C.ar      1 UNK         0.0850 
     12 C12        14.0713  -45.6435   -1.2580 C.ar      1 UNK         0.0850 
     13 C13        13.6425  -46.2793    1.1478 C.2       1 UNK         0.7150 
     14 C14         8.7540  -47.8987    3.0046 C.2       1 UNK         0.5000 
     15 C15        18.9415  -46.2743   -3.7406 C.2       1 UNK         0.7000 
     16 C16         7.3549  -44.7621    2.0493 C.3       1 UNK        -0.0050 
     17 C17        16.2762  -45.1806   -1.9375 C.3       1 UNK         0.1400 
     18 C18         9.2137  -45.3775    0.4557 C.3       1 UNK         0.0550 
     19 C19         8.2224  -45.9366    1.5414 C.3       1 UNK         0.1400 
     20 C20        15.8537  -45.5877   -3.3577 C.3       1 UNK         0.1700 
     21 C21        10.6988  -45.7877    0.6657 C.3       1 UNK        -0.0050 
     22 C22         9.5604  -48.3834    4.2140 C.3       1 UNK        -0.1200 
     23 C23        17.9393  -46.0074   -4.8572 C.3       1 UNK        -0.2200 
     24 C24        16.7935  -45.0516   -4.4556 C.3       1 UNK        -0.1200 
     25 C25         8.6783  -48.9474    5.3478 C.3       1 UNK        -0.1200 
     26 C26         8.1828  -47.8743    6.3324 C.3       1 UNK        -0.1200 
     27 C27         7.1485  -48.4143    7.3379 C.3       1 UNK        -0.1200 
     28 C28         6.8178  -47.4202    8.4656 C.3       1 UNK         0.1900 
     29 N29         8.8640  -46.6026    2.6815 N.am      1 UNK        -0.5000 
     30 N30         7.8159  -47.4743    9.5476 N.4       1 UNK        -0.3000 
     31 O31        12.9546  -47.0361    1.8704 O.co2     1 UNK        -0.8000 
     32 O32        19.8989  -45.4743   -3.6422 O.co2     1 UNK        -0.8000 
     33 O33        14.7563  -45.8743    1.5477 O.co2     1 UNK        -0.8000 
     34 O34         8.0618  -48.6942    2.3710 O.2       1 UNK        -0.5000 
     35 O35        18.7243  -47.2513   -2.9939 O.co2     1 UNK        -0.8000 
     36 O36        15.4159  -45.8421   -1.0298 O.3       1 UNK        -0.2850 
     37 O37        14.5375  -45.0794   -3.5848 O.3       1 UNK        -0.2850 
     38 H38         7.5253  -40.2506    0.6336 H         1 UNK         0.1150 
     39 H39         9.4160  -40.7807   -0.8890 H         1 UNK         0.1150 
     40 H40         6.5052  -42.0472    2.0370 H         1 UNK         0.1150 
     41 H41        10.3151  -43.0785   -1.0273 H         1 UNK         0.1150 
     42 H42        10.2897  -45.1377   -2.0129 H         1 UNK         0.1150 
     43 H43        11.9355  -44.7894   -3.7831 H         1 UNK         0.1150 
     44 H44         7.4817  -44.5744    3.1169 H         1 UNK         0.0600 
     45 H45         6.2954  -44.9330    1.8557 H         1 UNK         0.0600 
     46 H46        17.2968  -45.4740   -1.7032 H         1 UNK         0.0300 
     47 H47        16.2160  -44.1001   -1.7982 H         1 UNK         0.0300 
     48 H48         8.8777  -45.7925   -0.4943 H         1 UNK         0.0600 
     49 H49         7.5540  -46.6390    1.0399 H         1 UNK         0.0600 
     50 H50        15.8158  -46.6743   -3.4314 H         1 UNK         0.0300 
     51 H51        11.0634  -45.2875    1.5640 H         1 UNK         0.0600 
     52 H52        10.6994  -46.8586    0.8685 H         1 UNK         0.0600 
     53 H53        10.2201  -49.1724    3.8513 H         1 UNK         0.0600 
     54 H54        10.2157  -47.5947    4.5877 H         1 UNK         0.0600 
     55 H55        17.5382  -46.9543   -5.2199 H         1 UNK         0.0600 
     56 H56        18.4950  -45.5705   -5.6832 H         1 UNK         0.0600 
     57 H57        16.2052  -44.8783   -5.3582 H         1 UNK         0.0600 
     58 H58        17.1861  -44.0733   -4.1772 H         1 UNK         0.0600 
     59 H59         7.8270  -49.4860    4.9279 H         1 UNK         0.0600 
     60 H60         9.2509  -49.6924    5.9012 H         1 UNK         0.0600 
     61 H61         9.0449  -47.4743    6.8652 H         1 UNK         0.0600 
     62 H62         7.7475  -47.0384    5.7826 H         1 UNK         0.0600 
     63 H63         6.2331  -48.6431    6.7905 H         1 UNK         0.0600 
     64 H64         7.4855  -49.3614    7.7620 H         1 UNK         0.0600 
     65 H65         6.7589  -46.4036    8.0743 H         1 UNK         0.0600 
     66 H66         5.8426  -47.6482    8.8971 H         1 UNK         0.0600 
     67 H67         9.4159  -46.0143    3.2970 H         1 UNK         0.3000 
     68 H68         7.7732  -46.6251   10.1246 H         1 UNK         0.3300 
     69 H69         7.7022  -48.2965   10.1199 H         1 UNK         0.3300 
     70 H70         8.7515  -47.4581    9.1476 H         1 UNK         0.3300 
@<TRIPOS>BOND
     1    1    2 ar   
     2    1    3 ar   
     3    1   38 1    
     4    2    4 ar   
     5    2   39 1    
     6    3    8 ar   
     7    3   40 1    
     8    4    9 ar   
     9    4   41 1    
    10    5    6 ar   
    11    5   10 ar   
    12    5   42 1    
    13    6   11 ar   
    14    6   43 1    
    15    7   10 ar   
    16    7   12 ar   
    17    7   13 1    
    18    8    9 ar   
    19    8   16 1    
    20    9   18 1    
    21   10   21 1    
    22   11   12 ar   
    23   11   37 1    
    24   12   36 1    
    25   13   31 1    
    26   13   33 2    
    27   14   22 1    
    28   14   29 am   BACKBONE|DICT|INTERRES
    29   14   34 2    
    30   15   23 1    
    31   15   32 1    
    32   15   35 2    
    33   16   19 1    
    34   16   44 1    
    35   16   45 1    
    36   17   20 1    
    37   17   36 1    
    38   17   46 1    
    39   17   47 1    
    40   18   19 1    
    41   18   21 1    
    42   18   48 1    
    43   19   29 1    
    44   19   49 1    
    45   20   24 1    
    46   20   37 1    
    47   20   50 1    
    48   21   51 1    
    49   21   52 1    
    50   22   25 1    
    51   22   53 1    
    52   22   54 1    
    53   23   24 1    
    54   23   55 1    
    55   23   56 1    
    56   24   57 1    
    57   24   58 1    
    58   25   26 1    
    59   25   59 1    
    60   25   60 1    
    61   26   27 1    
    62   26   61 1    
    63   26   62 1    
    64   27   28 1    
    65   27   63 1    
    66   27   64 1    
    67   28   30 1    
    68   28   65 1    
    69   28   66 1    
    70   29   67 1    
    71   30   68 1    
    72   30   69 1    
    73   30   70 1    
@<TRIPOS>SUBSTRUCTURE
     1 UNK         1 GROUP             0       ****    0 ROOT    
