@<TRIPOS>MOLECULE
AVX38674_0
59   62    1
SMALL
USER_CHARGES


@<TRIPOS>ATOM
      1 C1          4.5945  -46.3150    6.2058 C.ar      1 UNK        -0.1150 
      2 C2          9.8884  -41.0949   -1.6512 C.ar      1 UNK        -0.1150 
      3 C3          3.9744  -45.0991    5.9239 C.ar      1 UNK        -0.1150 
      4 C4          5.9050  -46.5414    5.7885 C.ar      1 UNK        -0.1150 
      5 C5         10.4176  -42.3733   -1.8142 C.ar      1 UNK        -0.1150 
      6 C6          8.8912  -40.8711   -0.7046 C.ar      1 UNK        -0.1150 
      7 C7          4.6639  -44.1098    5.2205 C.ar      1 UNK        -0.1150 
      8 C8          6.5962  -45.5527    5.0852 C.ar      1 UNK        -0.1150 
      9 C9          9.9522  -43.4294   -1.0279 C.ar      1 UNK        -0.1150 
     10 C10         8.4231  -41.9255    0.0822 C.ar      1 UNK        -0.1150 
     11 C11        11.5438  -45.1855   -1.8700 C.ar      1 UNK        -0.1150 
     12 C12        12.4601  -45.1616   -2.9223 C.ar      1 UNK        -0.1150 
     13 C13        13.2792  -45.9308   -0.3044 C.ar      1 UNK        -0.1150 
     14 C14         5.9804  -44.3288    4.7870 C.ar      1 UNK        -0.1150 
     15 C15         8.9521  -43.2191   -0.0641 C.ar      1 UNK        -0.1150 
     16 C16        11.9311  -45.5635   -0.5578 C.ar      1 UNK        -0.1150 
     17 C17        13.7568  -45.5265   -2.6465 C.ar      1 UNK         0.0850 
     18 C18        14.1571  -45.9001   -1.3828 C.ar      1 UNK         0.0850 
     19 C19        13.7630  -46.3367    1.0480 C.2       1 UNK         0.7150 
     20 C20         7.2888  -43.9560    1.7196 C.2       1 UNK         0.5000 
     21 C21         8.6725  -46.7468    0.0865 C.2       1 UNK         0.8137 
     22 C22        15.8625  -46.0199   -2.7315 C.3       1 UNK         0.2000 
     23 C23        10.5075  -47.9534    1.1675 C.3       1 UNK        -0.1303 
     24 C24         6.7269  -43.2525    4.0384 C.3       1 UNK         0.1950 
     25 C25        10.8634  -45.5785    0.5214 C.3       1 UNK         0.0447 
     26 C26         8.4546  -44.3837    0.7805 C.3       1 UNK         0.1775 
     27 N27         7.6113  -43.8198    3.0503 N.am      1 UNK        -0.5000 
     28 N28         8.1166  -45.5158   -0.0704 N.am      1 UNK        -0.4886 
     29 N29         9.9943  -46.7638    0.4971 N.am      1 UNK        -0.2219 
     30 O30        12.9086  -46.7504    1.8939 O.co2     1 UNK        -0.8000 
     31 O31        15.0107  -46.2595    1.2851 O.co2     1 UNK        -0.8000 
     32 O32         6.1264  -43.8572    1.3135 O.2       1 UNK        -0.5000 
     33 O33         8.0216  -47.7740   -0.1040 O.2       1 UNK        -0.6163 
     34 O34        14.7669  -45.5715   -3.5562 O.3       1 UNK        -0.2850 
     35 O35        15.4776  -46.2415   -1.3580 O.3       1 UNK        -0.2850 
     36 H36         4.0573  -47.0855    6.7554 H         1 UNK         0.1150 
     37 H37        10.2518  -40.2725   -2.2644 H         1 UNK         0.1150 
     38 H38         2.9536  -44.9187    6.2552 H         1 UNK         0.1150 
     39 H39         6.3915  -47.4886    6.0137 H         1 UNK         0.1150 
     40 H40        11.1944  -42.5495   -2.5561 H         1 UNK         0.1150 
     41 H41         8.4743  -39.8737   -0.5784 H         1 UNK         0.1150 
     42 H42         4.1729  -43.1588    5.0153 H         1 UNK         0.1150 
     43 H43         7.6229  -45.7411    4.7737 H         1 UNK         0.1150 
     44 H44        10.3785  -44.4212   -1.1750 H         1 UNK         0.1150 
     45 H45         7.6380  -41.7274    0.8115 H         1 UNK         0.1150 
     46 H46        10.5103  -44.9054   -2.0769 H         1 UNK         0.1150 
     47 H47        12.1552  -44.8716   -3.9228 H         1 UNK         0.1150 
     48 H48        16.2519  -46.9579   -3.1430 H         1 UNK         0.1000 
     49 H49        16.6557  -45.2641   -2.7574 H         1 UNK         0.1000 
     50 H50         9.8177  -48.7976    1.0868 H         1 UNK         0.0600 
     51 H51        10.6564  -47.7217    2.2263 H         1 UNK         0.0600 
     52 H52        11.4598  -48.2471    0.7183 H         1 UNK         0.0600 
     53 H53         6.0293  -42.5577    3.5574 H         1 UNK         0.0600 
     54 H54         7.3362  -42.6685    4.7367 H         1 UNK         0.0600 
     55 H55        10.3082  -44.6377    0.4857 H         1 UNK         0.0600 
     56 H56        11.3341  -45.5811    1.5135 H         1 UNK         0.0600 
     57 H57         9.2601  -44.7055    1.4541 H         1 UNK         0.0600 
     58 H58         8.5065  -44.1927    3.3873 H         1 UNK         0.3000 
     59 H59         7.1949  -45.4865   -0.5132 H         1 UNK         0.2912 
@<TRIPOS>BOND
     1    1    3 ar   
     2    1    4 ar   
     3    1   36 1    
     4    2    5 ar   
     5    2    6 ar   
     6    2   37 1    
     7    3    7 ar   
     8    3   38 1    
     9    4    8 ar   
    10    4   39 1    
    11    5    9 ar   
    12    5   40 1    
    13    6   10 ar   
    14    6   41 1    
    15    7   14 ar   
    16    7   42 1    
    17    8   14 ar   
    18    8   43 1    
    19    9   15 ar   
    20    9   44 1    
    21   10   15 ar   
    22   10   45 1    
    23   11   12 ar   
    24   11   16 ar   
    25   11   46 1    
    26   12   17 ar   
    27   12   47 1    
    28   13   16 ar   
    29   13   18 ar   
    30   13   19 1    
    31   14   24 1    
    32   15   26 1    
    33   16   25 1    
    34   17   18 ar   
    35   17   34 1    
    36   18   35 1    
    37   19   30 1    
    38   19   31 2    
    39   20   26 1    
    40   20   27 am   BACKBONE|DICT|INTERRES
    41   20   32 2    
    42   21   28 am   BACKBONE|DICT|INTERRES
    43   21   29 am   BACKBONE|DICT|INTERRES
    44   21   33 2    
    45   22   34 1    
    46   22   35 1    
    47   22   48 1    
    48   22   49 1    
    49   23   29 1    
    50   23   50 1    
    51   23   51 1    
    52   23   52 1    
    53   24   27 1    
    54   24   53 1    
    55   24   54 1    
    56   25   29 1    
    57   25   55 1    
    58   25   56 1    
    59   26   28 1    
    60   26   57 1    
    61   27   58 1    
    62   28   59 1    
@<TRIPOS>SUBSTRUCTURE
     1 UNK         1 GROUP             0       ****    0 ROOT    
