@<TRIPOS>MOLECULE
AVX38673_1
58   60    1
SMALL
USER_CHARGES


@<TRIPOS>ATOM
      1 C1          8.5812  -40.4362   -0.4163 C.ar      1 UNK        -0.1150 
      2 C2          9.0350  -41.6153   -1.0154 C.ar      1 UNK        -0.1150 
      3 C3          7.8159  -40.5134    0.7485 C.ar      1 UNK        -0.1150 
      4 C4          8.7272  -42.8533   -0.4312 C.ar      1 UNK        -0.1150 
      5 C5          7.5442  -41.7562    1.3445 C.ar      1 UNK        -0.1150 
      6 C6         11.3434  -45.2306   -1.7343 C.ar      1 UNK        -0.1150 
      7 C7         12.2226  -45.0743   -2.8256 C.ar      1 UNK        -0.1150 
      8 C8         13.1941  -45.9145   -0.2516 C.ar      1 UNK        -0.1150 
      9 C9          8.0320  -42.9758    0.7996 C.ar      1 UNK        -0.1150 
     10 C10        11.8061  -45.6005   -0.4413 C.ar      1 UNK        -0.1150 
     11 C11        13.5738  -45.3546   -2.6086 C.ar      1 UNK         0.0850 
     12 C12        14.0425  -45.7700   -1.3783 C.ar      1 UNK         0.0850 
     13 C13        13.7825  -46.3810    1.0610 C.2       1 UNK         0.7150 
     14 C14         6.6818  -44.3013    2.4052 C.2       1 UNK         0.5000 
     15 C15         8.4886  -46.4675    0.1834 C.2       1 UNK         0.8137 
     16 C16        15.7450  -45.6592   -2.7959 C.3       1 UNK         0.2000 
     17 C17         3.2434  -44.3163    6.3621 C.3       1 UNK        -0.1800 
     18 C18        10.2682  -47.9162    1.0006 C.3       1 UNK        -0.1303 
     19 C19        10.7768  -45.5331    0.6998 C.3       1 UNK         0.0447 
     20 C20         4.7072  -44.4339    6.8117 C.3       1 UNK        -0.1200 
     21 C21         5.6821  -44.7877    5.6760 C.3       1 UNK        -0.1200 
     22 C22         5.8573  -43.6543    4.6550 C.3       1 UNK         0.0800 
     23 C23         7.9156  -44.3295    1.4860 C.3       1 UNK         0.1775 
     24 N24         6.9013  -43.9623    3.6848 N.am      1 UNK        -0.5000 
     25 N25         7.7555  -45.3743    0.4727 N.am      1 UNK        -0.4886 
     26 N26         9.7375  -46.5813    0.7036 N.am      1 UNK        -0.2219 
     27 O27        13.0470  -46.8909    1.9326 O.co2     1 UNK        -0.8000 
     28 O28        15.0158  -46.2739    1.2460 O.co2     1 UNK        -0.8000 
     29 O29         5.5614  -44.5197    1.9504 O.2       1 UNK        -0.5000 
     30 O30         7.9532  -47.3733   -0.4535 O.2       1 UNK        -0.6163 
     31 O31        14.5911  -45.3045   -3.5057 O.3       1 UNK        -0.2850 
     32 O32        15.3826  -45.9966   -1.4843 O.3       1 UNK        -0.2850 
     33 H33         8.7781  -39.4743   -0.8524 H         1 UNK         0.1150 
     34 H34         9.6012  -41.5726   -1.9344 H         1 UNK         0.1150 
     35 H35         7.4449  -39.6097    1.2067 H         1 UNK         0.1150 
     36 H36         9.0699  -43.7280   -0.9465 H         1 UNK         0.1150 
     37 H37         6.9920  -41.7285    2.2717 H         1 UNK         0.1150 
     38 H38        10.2979  -45.0400   -1.9029 H         1 UNK         0.1150 
     39 H39        11.8629  -44.7716   -3.7968 H         1 UNK         0.1150 
     40 H40        16.2341  -46.5054   -3.2793 H         1 UNK         0.1000 
     41 H41        16.4298  -44.8116   -2.7752 H         1 UNK         0.1000 
     42 H42         2.5926  -44.1392    7.2173 H         1 UNK         0.0600 
     43 H43         3.1042  -43.4891    5.6665 H         1 UNK         0.0600 
     44 H44         2.9062  -45.2301    5.8721 H         1 UNK         0.0600 
     45 H45         9.5083  -48.6984    0.9903 H         1 UNK         0.0600 
     46 H46        10.7033  -47.9266    1.9999 H         1 UNK         0.0600 
     47 H47        11.0434  -48.1985    0.2865 H         1 UNK         0.0600 
     48 H48        10.3473  -44.5468    0.6013 H         1 UNK         0.0600 
     49 H49        11.2238  -45.4685    1.6879 H         1 UNK         0.0600 
     50 H50         4.7751  -45.2043    7.5800 H         1 UNK         0.0600 
     51 H51         5.0154  -43.5020    7.2887 H         1 UNK         0.0600 
     52 H52         5.3480  -45.6927    5.1662 H         1 UNK         0.0600 
     53 H53         6.6487  -45.0314    6.1151 H         1 UNK         0.0600 
     54 H54         6.1404  -42.7256    5.1476 H         1 UNK         0.0600 
     55 H55         4.9097  -43.4465    4.1552 H         1 UNK         0.0600 
     56 H56         8.7825  -44.5154    2.1222 H         1 UNK         0.0600 
     57 H57         7.8606  -43.8620    3.9913 H         1 UNK         0.3000 
     58 H58         6.8348  -45.3783    0.0606 H         1 UNK         0.2912 
@<TRIPOS>BOND
     1    1    2 ar   
     2    1    3 ar   
     3    1   33 1    
     4    2    4 ar   
     5    2   34 1    
     6    3    5 ar   
     7    3   35 1    
     8    4    9 ar   
     9    4   36 1    
    10    5    9 ar   
    11    5   37 1    
    12    6    7 ar   
    13    6   10 ar   
    14    6   38 1    
    15    7   11 ar   
    16    7   39 1    
    17    8   10 ar   
    18    8   12 ar   
    19    8   13 1    
    20    9   23 1    
    21   10   19 1    
    22   11   12 ar   
    23   11   31 1    
    24   12   32 1    
    25   13   27 1    
    26   13   28 2    
    27   14   23 1    
    28   14   24 am   BACKBONE|DICT|INTERRES
    29   14   29 2    
    30   15   25 am   BACKBONE|DICT|INTERRES
    31   15   26 am   BACKBONE|DICT|INTERRES
    32   15   30 2    
    33   16   31 1    
    34   16   32 1    
    35   16   40 1    
    36   16   41 1    
    37   17   20 1    
    38   17   42 1    
    39   17   43 1    
    40   17   44 1    
    41   18   26 1    
    42   18   45 1    
    43   18   46 1    
    44   18   47 1    
    45   19   26 1    
    46   19   48 1    
    47   19   49 1    
    48   20   21 1    
    49   20   50 1    
    50   20   51 1    
    51   21   22 1    
    52   21   52 1    
    53   21   53 1    
    54   22   24 1    
    55   22   54 1    
    56   22   55 1    
    57   23   25 1    
    58   23   56 1    
    59   24   57 1    
    60   25   58 1    
@<TRIPOS>SUBSTRUCTURE
     1 UNK         1 GROUP             0       ****    0 ROOT    
