@<TRIPOS>MOLECULE
AVX38782_1
71   74    1
SMALL
USER_CHARGES


@<TRIPOS>ATOM
      1 C1          9.0100  -41.0656   -0.6500 C.ar      1 UNK        -0.1150 
      2 C2          9.8385  -41.8349   -1.4849 C.ar      1 UNK        -0.1150 
      3 C3          8.0800  -41.7008    0.1929 C.ar      1 UNK        -0.1150 
      4 C4          9.7456  -43.2384   -1.4643 C.ar      1 UNK        -0.1150 
      5 C5         11.7064  -44.4969   -1.6639 C.ar      1 UNK        -0.1150 
      6 C6         12.6416  -44.4049   -2.7167 C.ar      1 UNK        -0.1150 
      7 C7          7.9608  -43.1079    0.2059 C.ar      1 UNK        -0.1150 
      8 C8         13.3979  -45.6458   -0.3033 C.ar      1 UNK        -0.1150 
      9 C9          8.8223  -43.8907   -0.6174 C.ar      1 UNK        -0.1150 
     10 C10        12.0772  -45.1215   -0.4541 C.ar      1 UNK        -0.1150 
     11 C11        13.9414  -44.9299   -2.5787 C.ar      1 UNK         0.0850 
     12 C12        14.3284  -45.5393   -1.3554 C.ar      1 UNK         0.0850 
     13 C13         8.5761  -49.1786   -0.8197 C.2       1 UNK        -0.2300 
     14 C14         8.9039  -48.3094    0.1481 C.2       1 UNK        -0.1150 
     15 C15         6.9380  -43.7217    1.1157 C.2       1 UNK         0.6150 
     16 C16        13.7870  -46.2852    0.9538 C.2       1 UNK         0.7150 
     17 C17        19.4721  -45.8734   -4.4294 C.2       1 UNK         0.7000 
     18 C18         5.6788  -45.0004    5.4723 C.3       1 UNK        -0.1200 
     19 C19         6.3178  -44.8642    4.0857 C.3       1 UNK        -0.1200 
     20 C20         4.6342  -43.9697    5.0296 C.3       1 UNK        -0.1200 
     21 C21        16.5539  -45.5860   -2.1297 C.3       1 UNK         0.1400 
     22 C22         5.6330  -43.4980    3.9669 C.3       1 UNK        -0.1188 
     23 C23        15.9573  -45.6792   -3.5427 C.3       1 UNK         0.1700 
     24 C24         8.8371  -45.4207   -0.6019 C.3       1 UNK         0.2650 
     25 C25        11.0219  -45.1703    0.6551 C.3       1 UNK         0.2650 
     26 C26        10.1401  -47.4297    0.1270 C.3       1 UNK         0.1500 
     27 C27        18.0630  -46.3185   -4.8401 C.3       1 UNK        -0.2200 
     28 C28         5.0226  -43.2042    2.5995 C.3       1 UNK         0.1388 
     29 C29        16.9863  -45.2441   -4.5822 C.3       1 UNK        -0.1200 
     30 N30         6.0679  -42.8543    1.6509 N.am      1 UNK        -0.5000 
     31 N31         9.8033  -46.0000    0.3793 N.4       1 UNK        -0.1000 
     32 O32        14.9848  -46.2431    1.3105 O.co2     1 UNK        -0.8000 
     33 O33        20.3919  -45.9290   -5.2761 O.co2     1 UNK        -0.8000 
     34 O34         6.9383  -44.9308    1.3416 O.2       1 UNK        -0.5000 
     35 O35        12.9119  -46.8551    1.6411 O.co2     1 UNK        -0.8000 
     36 O36        19.6039  -45.4781   -3.2508 O.co2     1 UNK        -0.8000 
     37 O37        15.5973  -46.0404   -1.1752 O.3       1 UNK        -0.2850 
     38 O38        14.8153  -44.8309   -3.6371 O.3       1 UNK        -0.2850 
     39 H39         9.0852  -39.9881   -0.6575 H         1 UNK         0.1150 
     40 H40        10.5523  -41.3491   -2.1339 H         1 UNK         0.1150 
     41 H41         7.4447  -41.0974    0.8257 H         1 UNK         0.1150 
     42 H42        10.4022  -43.8177   -2.0972 H         1 UNK         0.1150 
     43 H43        10.7124  -44.0936   -1.7888 H         1 UNK         0.1150 
     44 H44        12.3584  -43.9337   -3.6463 H         1 UNK         0.1150 
     45 H45         7.6804  -49.7781   -0.7484 H         1 UNK         0.1150 
     46 H46         9.1969  -49.3040   -1.6953 H         1 UNK         0.1150 
     47 H47         8.2587  -48.2119    1.0092 H         1 UNK         0.1150 
     48 H48         5.2793  -45.9894    5.6969 H         1 UNK         0.0600 
     49 H49         6.3220  -44.6346    6.2727 H         1 UNK         0.0600 
     50 H50         7.4073  -44.8316    4.0851 H         1 UNK         0.0600 
     51 H51         5.9363  -45.5928    3.3702 H         1 UNK         0.0600 
     52 H52         3.7433  -44.4275    4.5998 H         1 UNK         0.0600 
     53 H53         4.3803  -43.2233    5.7822 H         1 UNK         0.0600 
     54 H54        17.4496  -46.2028   -2.0556 H         1 UNK         0.0300 
     55 H55        16.8491  -44.5620   -1.9008 H         1 UNK         0.0300 
     56 H56         6.2623  -42.6775    4.3117 H         1 UNK         0.0600 
     57 H57        15.6775  -46.7060   -3.7779 H         1 UNK         0.0300 
     58 H58         9.1207  -45.7267   -1.6089 H         1 UNK         0.0600 
     59 H59         7.8510  -45.8424   -0.4388 H         1 UNK         0.0600 
     60 H60        11.4942  -45.4577    1.5942 H         1 UNK         0.0600 
     61 H61        10.6764  -44.1525    0.8402 H         1 UNK         0.0600 
     62 H62        10.8713  -47.7798    0.8564 H         1 UNK         0.0600 
     63 H63        10.5885  -47.5659   -0.8559 H         1 UNK         0.0600 
     64 H64        17.8183  -47.2290   -4.2923 H         1 UNK         0.0600 
     65 H65        18.0833  -46.5823   -5.8979 H         1 UNK         0.0600 
     66 H66         4.4701  -44.0708    2.2339 H         1 UNK         0.0600 
     67 H67         4.3115  -42.3794    2.6657 H         1 UNK         0.0600 
     68 H68        16.4758  -44.9940   -5.5136 H         1 UNK         0.0600 
     69 H69        17.4688  -44.3280   -4.2380 H         1 UNK         0.0600 
     70 H70         6.0901  -41.8977    1.3293 H         1 UNK         0.3000 
     71 H71         9.2907  -46.0033    1.2488 H         1 UNK         0.2900 
@<TRIPOS>BOND
     1    1    2 ar   
     2    1    3 ar   
     3    1   39 1    
     4    2    4 ar   
     5    2   40 1    
     6    3    7 ar   
     7    3   41 1    
     8    4    9 ar   
     9    4   42 1    
    10    5    6 ar   
    11    5   10 ar   
    12    5   43 1    
    13    6   11 ar   
    14    6   44 1    
    15    7    9 ar   
    16    7   15 1    
    17    8   10 ar   
    18    8   12 ar   
    19    8   16 1    
    20    9   24 1    
    21   10   25 1    
    22   11   12 ar   
    23   11   38 1    
    24   12   37 1    
    25   13   14 2    
    26   13   45 1    
    27   13   46 1    
    28   14   26 1    
    29   14   47 1    
    30   15   30 am   BACKBONE|DICT|INTERRES
    31   15   34 2    
    32   16   32 1    
    33   16   35 2    
    34   17   27 1    
    35   17   33 1    
    36   17   36 2    
    37   18   19 1    
    38   18   20 1    
    39   18   48 1    
    40   18   49 1    
    41   19   22 1    
    42   19   50 1    
    43   19   51 1    
    44   20   22 1    
    45   20   52 1    
    46   20   53 1    
    47   21   23 1    
    48   21   37 1    
    49   21   54 1    
    50   21   55 1    
    51   22   28 1    
    52   22   56 1    
    53   23   29 1    
    54   23   38 1    
    55   23   57 1    
    56   24   31 1    
    57   24   58 1    
    58   24   59 1    
    59   25   31 1    
    60   25   60 1    
    61   25   61 1    
    62   26   31 1    
    63   26   62 1    
    64   26   63 1    
    65   27   29 1    
    66   27   64 1    
    67   27   65 1    
    68   28   30 1    
    69   28   66 1    
    70   28   67 1    
    71   29   68 1    
    72   29   69 1    
    73   30   70 1    
    74   31   71 1    
@<TRIPOS>SUBSTRUCTURE
     1 UNK         1 GROUP             0       ****    0 ROOT    
