@<TRIPOS>MOLECULE
AVX38672_0
58   60    1
SMALL
USER_CHARGES


@<TRIPOS>ATOM
      1 C1          8.6162  -40.4158   -0.3931 C.ar      1 UNK        -0.1150 
      2 C2          7.8161  -40.4468    0.7476 C.ar      1 UNK        -0.1150 
      3 C3          9.0146  -41.6128   -1.0025 C.ar      1 UNK        -0.1150 
      4 C4          7.3103  -41.6693    1.2175 C.ar      1 UNK        -0.1150 
      5 C5          8.4510  -42.8222   -0.5628 C.ar      1 UNK        -0.1150 
      6 C6         11.5431  -45.1292   -1.7186 C.ar      1 UNK        -0.1150 
      7 C7         12.4578  -45.0616   -2.7878 C.ar      1 UNK        -0.1150 
      8 C8         13.2934  -45.9594   -0.1852 C.ar      1 UNK        -0.1150 
      9 C9          7.5711  -42.8930    0.5488 C.ar      1 UNK        -0.1150 
     10 C10        11.9394  -45.5602   -0.4231 C.ar      1 UNK        -0.1150 
     11 C11        13.7808  -45.4361   -2.5283 C.ar      1 UNK         0.0850 
     12 C12        14.1852  -45.8683   -1.2803 C.ar      1 UNK         0.0850 
     13 C13        13.7937  -46.4625    1.1474 C.2       1 UNK         0.7150 
     14 C14         6.0467  -44.1570    2.1363 C.2       1 UNK         0.5000 
     15 C15         8.4905  -46.1386    0.3216 C.2       1 UNK         0.8137 
     16 C16        15.9337  -45.8760   -2.6388 C.3       1 UNK         0.2000 
     17 C17         5.4000  -43.6573    5.1457 C.3       1 UNK        -0.1800 
     18 C18         4.2627  -45.7229    4.2125 C.3       1 UNK        -0.1800 
     19 C19         6.4630  -45.9183    5.3952 C.3       1 UNK        -0.1800 
     20 C20        10.1853  -47.8592    0.0363 C.3       1 UNK        -0.1303 
     21 C21        10.8611  -45.5319    0.6614 C.3       1 UNK         0.0447 
     22 C22         7.0022  -44.2396    0.9211 C.3       1 UNK         0.1775 
     23 C23         5.6148  -45.0281    4.4743 C.3       1 UNK         0.2000 
     24 N24         6.3664  -44.8793    3.2249 N.am      1 UNK        -0.5000 
     25 N25         8.1465  -45.1240    1.1288 N.am      1 UNK        -0.4886 
     26 N26         9.7780  -46.5156    0.4576 N.am      1 UNK        -0.2219 
     27 O27        14.9930  -46.2732    1.4491 O.co2     1 UNK        -0.8000 
     28 O28        13.0171  -47.0730    1.9168 O.co2     1 UNK        -0.8000 
     29 O29         5.0221  -43.4754    2.0636 O.2       1 UNK        -0.5000 
     30 O30         7.6972  -46.6925   -0.4398 O.2       1 UNK        -0.6163 
     31 O31        14.8281  -45.4581   -3.3911 O.3       1 UNK        -0.2850 
     32 O32        15.5085  -46.1807   -1.3382 O.3       1 UNK        -0.2850 
     33 H33         8.9824  -39.4746   -0.7593 H         1 UNK         0.1150 
     34 H34         7.5741  -39.5270    1.2575 H         1 UNK         0.1150 
     35 H35         9.6736  -41.5966   -1.8587 H         1 UNK         0.1150 
     36 H36         6.6887  -41.6243    2.0989 H         1 UNK         0.1150 
     37 H37         8.6916  -43.7177   -1.1137 H         1 UNK         0.1150 
     38 H38        10.5184  -44.8384   -1.8945 H         1 UNK         0.1150 
     39 H39        12.1498  -44.7293   -3.7671 H         1 UNK         0.1150 
     40 H40        16.3874  -46.7554   -3.0981 H         1 UNK         0.1000 
     41 H41        16.6686  -45.0716   -2.5989 H         1 UNK         0.1000 
     42 H42         5.0666  -43.7619    6.1787 H         1 UNK         0.0600 
     43 H43         6.3150  -43.0672    5.1479 H         1 UNK         0.0600 
     44 H44         4.6436  -43.0748    4.6258 H         1 UNK         0.0600 
     45 H45         3.7304  -45.9099    5.1453 H         1 UNK         0.0600 
     46 H46         3.6084  -45.1178    3.5850 H         1 UNK         0.0600 
     47 H47         4.3991  -46.6842    3.7147 H         1 UNK         0.0600 
     48 H48         5.9851  -46.0623    6.3648 H         1 UNK         0.0600 
     49 H49         6.6277  -46.9053    4.9618 H         1 UNK         0.0600 
     50 H50         7.4387  -45.4731    5.5723 H         1 UNK         0.0600 
     51 H51        11.1388  -48.1435    0.4803 H         1 UNK         0.0600 
     52 H52         9.4548  -48.6095    0.3425 H         1 UNK         0.0600 
     53 H53        10.2869  -47.9082   -1.0485 H         1 UNK         0.0600 
     54 H54        10.4889  -44.5085    0.6207 H         1 UNK         0.0600 
     55 H55        11.2299  -45.6053    1.6799 H         1 UNK         0.0600 
     56 H56         6.4004  -44.5993    0.0866 H         1 UNK         0.0600 
     57 H57         7.2252  -45.4073    3.1713 H         1 UNK         0.3000 
     58 H58         8.8462  -44.7944    1.7776 H         1 UNK         0.2912 
@<TRIPOS>BOND
     1    1    2 ar   
     2    1    3 ar   
     3    1   33 1    
     4    2    4 ar   
     5    2   34 1    
     6    3    5 ar   
     7    3   35 1    
     8    4    9 ar   
     9    4   36 1    
    10    5    9 ar   
    11    5   37 1    
    12    6    7 ar   
    13    6   10 ar   
    14    6   38 1    
    15    7   11 ar   
    16    7   39 1    
    17    8   10 ar   
    18    8   12 ar   
    19    8   13 1    
    20    9   22 1    
    21   10   21 1    
    22   11   12 ar   
    23   11   31 1    
    24   12   32 1    
    25   13   27 1    
    26   13   28 2    
    27   14   22 1    
    28   14   24 am   BACKBONE|DICT|INTERRES
    29   14   29 2    
    30   15   25 am   BACKBONE|DICT|INTERRES
    31   15   26 am   BACKBONE|DICT|INTERRES
    32   15   30 2    
    33   16   31 1    
    34   16   32 1    
    35   16   40 1    
    36   16   41 1    
    37   17   23 1    
    38   17   42 1    
    39   17   43 1    
    40   17   44 1    
    41   18   23 1    
    42   18   45 1    
    43   18   46 1    
    44   18   47 1    
    45   19   23 1    
    46   19   48 1    
    47   19   49 1    
    48   19   50 1    
    49   20   26 1    
    50   20   51 1    
    51   20   52 1    
    52   20   53 1    
    53   21   26 1    
    54   21   54 1    
    55   21   55 1    
    56   22   25 1    
    57   22   56 1    
    58   23   24 1    
    59   24   57 1    
    60   25   58 1    
@<TRIPOS>SUBSTRUCTURE
     1 UNK         1 GROUP             0       ****    0 ROOT    
