@<TRIPOS>MOLECULE
AVX38788_1
67   70    1
SMALL
USER_CHARGES


@<TRIPOS>ATOM
      1 C1          8.4360  -40.7182   -0.0501 C.ar      1 UNK        -0.1150 
      2 C2          9.1916  -41.2916   -1.0795 C.ar      1 UNK        -0.1150 
      3 C3          7.7210  -41.5468    0.8294 C.ar      1 UNK        -0.1150 
      4 C4          9.2231  -42.6843   -1.2187 C.ar      1 UNK        -0.1150 
      5 C5         11.9064  -44.9880   -2.0302 C.ar      1 UNK        -0.1150 
      6 C6         12.8798  -45.0713   -3.0286 C.ar      1 UNK        -0.1150 
      7 C7          7.7934  -42.9623    0.7488 C.ar      1 UNK        -0.1150 
      8 C8         13.5423  -45.6630   -0.3419 C.ar      1 UNK        -0.1150 
      9 C9          8.5781  -43.5444   -0.2950 C.ar      1 UNK        -0.1150 
     10 C10        12.2238  -45.2320   -0.6785 C.ar      1 UNK        -0.1150 
     11 C11        14.2022  -45.3726   -2.6989 C.ar      1 UNK         0.0850 
     12 C12        14.5482  -45.6413   -1.3524 C.ar      1 UNK         0.0850 
     13 C13         7.0110  -43.7830    1.7478 C.2       1 UNK         0.6150 
     14 C14        13.8779  -46.1253    1.0564 C.2       1 UNK         0.7150 
     15 C15        19.5620  -46.5408   -3.6914 C.2       1 UNK         0.7000 
     16 C16         2.8015  -44.7149    3.8554 C.3       1 UNK        -0.1200 
     17 C17         3.8626  -44.1626    2.8984 C.3       1 UNK        -0.1200 
     18 C18         3.8370  -44.6066    4.9766 C.3       1 UNK        -0.1200 
     19 C19        16.8169  -45.4727   -2.0216 C.3       1 UNK         0.1400 
     20 C20         4.9396  -44.5993    3.9076 C.3       1 UNK        -0.1188 
     21 C21        16.3751  -46.0048   -3.3978 C.3       1 UNK         0.1700 
     22 C22         9.5091  -46.1416    1.6530 C.3       1 UNK         0.0900 
     23 C23         8.8064  -45.0575   -0.4830 C.3       1 UNK         0.2650 
     24 C24        11.1782  -44.8594    0.3781 C.3       1 UNK         0.2650 
     25 C25        18.4946  -46.6594   -4.7742 C.3       1 UNK        -0.2200 
     26 C26         6.2112  -43.7743    4.1454 C.3       1 UNK         0.1388 
     27 C27        17.3277  -45.6720   -4.5648 C.3       1 UNK        -0.1200 
     28 N28         6.8239  -43.2040    2.9458 N.am      1 UNK        -0.5000 
     29 N29         9.9257  -45.6579    0.3145 N.4       1 UNK        -0.1000 
     30 O30        13.0130  -46.7633    1.6982 O.co2     1 UNK        -0.8000 
     31 O31        19.6799  -47.4964   -2.8957 O.co2     1 UNK        -0.8000 
     32 O32         6.6217  -44.9174    1.4819 O.2       1 UNK        -0.5000 
     33 O33        14.9988  -45.8742    1.5470 O.co2     1 UNK        -0.8000 
     34 O34        20.2161  -45.4745   -3.6518 O.co2     1 UNK        -0.8000 
     35 O35        15.8669  -45.8729   -1.0415 O.3       1 UNK        -0.2850 
     36 O36        15.1293  -45.3971   -3.7138 O.3       1 UNK        -0.2850 
     37 H37         8.3707  -39.6445    0.0450 H         1 UNK         0.1150 
     38 H38         9.7180  -40.6715   -1.7895 H         1 UNK         0.1150 
     39 H39         7.1166  -41.0649    1.5837 H         1 UNK         0.1150 
     40 H40         9.7838  -43.0748   -2.0480 H         1 UNK         0.1150 
     41 H41        10.9199  -44.7112   -2.3409 H         1 UNK         0.1150 
     42 H42        12.6108  -44.8758   -4.0518 H         1 UNK         0.1150 
     43 H43         1.9196  -44.0894    3.9850 H         1 UNK         0.0600 
     44 H44         2.5272  -45.7467    3.6312 H         1 UNK         0.0600 
     45 H45         3.9074  -44.6906    1.9473 H         1 UNK         0.0600 
     46 H46         3.8209  -43.0829    2.7477 H         1 UNK         0.0600 
     47 H47         3.7642  -43.6644    5.5230 H         1 UNK         0.0600 
     48 H48         3.8691  -45.4587    5.6568 H         1 UNK         0.0600 
     49 H49        17.7830  -45.8747   -1.7229 H         1 UNK         0.0300 
     50 H50        16.9093  -44.3865   -2.0284 H         1 UNK         0.0300 
     51 H51         5.2037  -45.6344    3.6781 H         1 UNK         0.0600 
     52 H52        16.2265  -47.0838   -3.3467 H         1 UNK         0.0300 
     53 H53        10.2984  -46.7493    2.0977 H         1 UNK         0.0600 
     54 H54         9.3116  -45.3104    2.3296 H         1 UNK         0.0600 
     55 H55         8.6159  -46.7646    1.5932 H         1 UNK         0.0600 
     56 H56         7.8920  -45.6336   -0.3715 H         1 UNK         0.0600 
     57 H57         9.0374  -45.2205   -1.5330 H         1 UNK         0.0600 
     58 H58        10.9952  -43.7956    0.2693 H         1 UNK         0.0600 
     59 H59        11.5763  -44.8948    1.3881 H         1 UNK         0.0600 
     60 H60        18.1235  -47.6843   -4.8229 H         1 UNK         0.0600 
     61 H61        18.9696  -46.4589   -5.7365 H         1 UNK         0.0600 
     62 H62         6.0000  -42.9464    4.8234 H         1 UNK         0.0600 
     63 H63         6.9602  -44.3863    4.6494 H         1 UNK         0.0600 
     64 H64        16.7496  -45.6867   -5.4907 H         1 UNK         0.0600 
     65 H65        17.6889  -44.6486   -4.4723 H         1 UNK         0.0600 
     66 H66         7.1967  -42.2737    3.0560 H         1 UNK         0.3000 
     67 H67        10.1895  -46.5040   -0.1711 H         1 UNK         0.2900 
@<TRIPOS>BOND
     1    1    2 ar   
     2    1    3 ar   
     3    1   37 1    
     4    2    4 ar   
     5    2   38 1    
     6    3    7 ar   
     7    3   39 1    
     8    4    9 ar   
     9    4   40 1    
    10    5    6 ar   
    11    5   10 ar   
    12    5   41 1    
    13    6   11 ar   
    14    6   42 1    
    15    7    9 ar   
    16    7   13 1    
    17    8   10 ar   
    18    8   12 ar   
    19    8   14 1    
    20    9   23 1    
    21   10   24 1    
    22   11   12 ar   
    23   11   36 1    
    24   12   35 1    
    25   13   28 am   BACKBONE|DICT|INTERRES
    26   13   32 2    
    27   14   30 1    
    28   14   33 2    
    29   15   25 1    
    30   15   31 1    
    31   15   34 2    
    32   16   17 1    
    33   16   18 1    
    34   16   43 1    
    35   16   44 1    
    36   17   20 1    
    37   17   45 1    
    38   17   46 1    
    39   18   20 1    
    40   18   47 1    
    41   18   48 1    
    42   19   21 1    
    43   19   35 1    
    44   19   49 1    
    45   19   50 1    
    46   20   26 1    
    47   20   51 1    
    48   21   27 1    
    49   21   36 1    
    50   21   52 1    
    51   22   29 1    
    52   22   53 1    
    53   22   54 1    
    54   22   55 1    
    55   23   29 1    
    56   23   56 1    
    57   23   57 1    
    58   24   29 1    
    59   24   58 1    
    60   24   59 1    
    61   25   27 1    
    62   25   60 1    
    63   25   61 1    
    64   26   28 1    
    65   26   62 1    
    66   26   63 1    
    67   27   64 1    
    68   27   65 1    
    69   28   66 1    
    70   29   67 1    
@<TRIPOS>SUBSTRUCTURE
     1 UNK         1 GROUP             0       ****    0 ROOT    
