@<TRIPOS>MOLECULE
AVX38749_0
64   67    1
SMALL
USER_CHARGES


@<TRIPOS>ATOM
      1 C1          8.1709  -41.0683    0.3439 C.ar      1 UNK        -0.1150 
      2 C2          9.2230  -41.4742   -0.5055 C.ar      1 UNK        -0.1150 
      3 C3          7.5063  -42.0162    1.1477 C.ar      1 UNK        -0.1150 
      4 C4          9.6410  -42.8192   -0.5423 C.ar      1 UNK        -0.1150 
      5 C5         11.3453  -45.2945   -1.8339 C.ar      1 UNK        -0.1150 
      6 C6         12.3001  -45.0744   -2.8392 C.ar      1 UNK        -0.1150 
      7 C7         13.1183  -45.8321   -0.2273 C.ar      1 UNK        -0.1150 
      8 C8          7.9350  -43.3545    1.0977 C.ar      1 UNK        -0.1150 
      9 C9          8.9783  -43.7634    0.2691 C.ar      1 UNK        -0.1150 
     10 C10        11.7302  -45.6160   -0.5107 C.ar      1 UNK        -0.1150 
     11 C11        13.6636  -45.2562   -2.5667 C.ar      1 UNK         0.0850 
     12 C12        14.0749  -45.6384   -1.2648 C.ar      1 UNK         0.0850 
     13 C13        13.6021  -46.2539    1.1476 C.2       1 UNK         0.7150 
     14 C14         8.7362  -47.6682    2.9415 C.2       1 UNK         0.5000 
     15 C15        18.9677  -46.2736   -3.7339 C.2       1 UNK         0.7000 
     16 C16         7.3728  -44.4837    1.9086 C.3       1 UNK        -0.0050 
     17 C17        16.2934  -45.1931   -1.9237 C.3       1 UNK         0.1400 
     18 C18         9.2074  -45.2648    0.3611 C.3       1 UNK         0.0550 
     19 C19         8.1844  -45.7233    1.4626 C.3       1 UNK         0.1400 
     20 C20        15.8803  -45.5889   -3.3510 C.3       1 UNK         0.1700 
     21 C21        10.6672  -45.7483    0.5951 C.3       1 UNK        -0.0050 
     22 C22         9.5190  -48.1242    4.1767 C.3       1 UNK        -0.1200 
     23 C23        17.9693  -46.0006   -4.8524 C.3       1 UNK        -0.2200 
     24 C24        16.8247  -45.0474   -4.4435 C.3       1 UNK        -0.1200 
     25 C25         8.6295  -48.2136    5.4341 C.3       1 UNK        -0.1200 
     26 C26         9.1715  -49.1698    6.5116 C.3       1 UNK         0.1900 
     27 N27         8.7948  -46.3649    2.6332 N.am      1 UNK        -0.5000 
     28 N28        10.4056  -48.6743    7.1476 N.4       1 UNK        -0.3000 
     29 O29        12.8844  -46.9707    1.8834 O.co2     1 UNK        -0.8000 
     30 O30        18.7493  -47.2570   -2.9960 O.co2     1 UNK        -0.8000 
     31 O31        14.7253  -45.8761    1.5477 O.co2     1 UNK        -0.8000 
     32 O32         8.1102  -48.4923    2.2776 O.2       1 UNK        -0.5000 
     33 O33        19.9246  -45.4743   -3.6269 O.co2     1 UNK        -0.8000 
     34 O34        15.4161  -45.8420   -1.0205 O.3       1 UNK        -0.2850 
     35 O35        14.5725  -45.0697   -3.5865 O.3       1 UNK        -0.2850 
     36 H36         7.8649  -40.0325    0.3684 H         1 UNK         0.1150 
     37 H37         9.7142  -40.7470   -1.1353 H         1 UNK         0.1150 
     38 H38         6.6984  -41.7172    1.7995 H         1 UNK         0.1150 
     39 H39        10.4551  -43.0817   -1.1926 H         1 UNK         0.1150 
     40 H40        10.3072  -45.1680   -2.0970 H         1 UNK         0.1150 
     41 H41        11.9810  -44.7950   -3.8318 H         1 UNK         0.1150 
     42 H42         7.4880  -44.2629    2.9711 H         1 UNK         0.0600 
     43 H43         6.3096  -44.6038    1.6982 H         1 UNK         0.0600 
     44 H44        17.3081  -45.5017   -1.6829 H         1 UNK         0.0300 
     45 H45        16.2479  -44.1120   -1.7828 H         1 UNK         0.0300 
     46 H46         8.8512  -45.6939   -0.5751 H         1 UNK         0.0600 
     47 H47         7.4844  -46.4187    0.9956 H         1 UNK         0.0600 
     48 H48        15.8296  -46.6741   -3.4337 H         1 UNK         0.0300 
     49 H49        11.0348  -45.2528    1.4946 H         1 UNK         0.0600 
     50 H50        10.6247  -46.8169    0.8059 H         1 UNK         0.0600 
     51 H51         9.9302  -49.1071    3.9427 H         1 UNK         0.0600 
     52 H52        10.3759  -47.4726    4.3493 H         1 UNK         0.0600 
     53 H53        17.5679  -46.9452   -5.2208 H         1 UNK         0.0600 
     54 H54        18.5254  -45.5584   -5.6757 H         1 UNK         0.0600 
     55 H55        16.2388  -44.8660   -5.3461 H         1 UNK         0.0600 
     56 H56        17.2184  -44.0719   -4.1570 H         1 UNK         0.0600 
     57 H57         8.4785  -47.2172    5.8527 H         1 UNK         0.0600 
     58 H58         7.6369  -48.5675    5.1486 H         1 UNK         0.0600 
     59 H59         8.4217  -49.3087    7.2917 H         1 UNK         0.0600 
     60 H60         9.3609  -50.1541    6.0808 H         1 UNK         0.0600 
     61 H61         9.3025  -45.7602    3.2726 H         1 UNK         0.3000 
     62 H62        10.7698  -49.3770    7.7739 H         1 UNK         0.3300 
     63 H63        11.0988  -48.4626    6.4450 H         1 UNK         0.3300 
     64 H64        10.2160  -47.8332    7.6990 H         1 UNK         0.3300 
@<TRIPOS>BOND
     1    1    2 ar   
     2    1    3 ar   
     3    1   36 1    
     4    2    4 ar   
     5    2   37 1    
     6    3    8 ar   
     7    3   38 1    
     8    4    9 ar   
     9    4   39 1    
    10    5    6 ar   
    11    5   10 ar   
    12    5   40 1    
    13    6   11 ar   
    14    6   41 1    
    15    7   10 ar   
    16    7   12 ar   
    17    7   13 1    
    18    8    9 ar   
    19    8   16 1    
    20    9   18 1    
    21   10   21 1    
    22   11   12 ar   
    23   11   35 1    
    24   12   34 1    
    25   13   29 1    
    26   13   31 2    
    27   14   22 1    
    28   14   27 am   BACKBONE|DICT|INTERRES
    29   14   32 2    
    30   15   23 1    
    31   15   30 1    
    32   15   33 2    
    33   16   19 1    
    34   16   42 1    
    35   16   43 1    
    36   17   20 1    
    37   17   34 1    
    38   17   44 1    
    39   17   45 1    
    40   18   19 1    
    41   18   21 1    
    42   18   46 1    
    43   19   27 1    
    44   19   47 1    
    45   20   24 1    
    46   20   35 1    
    47   20   48 1    
    48   21   49 1    
    49   21   50 1    
    50   22   25 1    
    51   22   51 1    
    52   22   52 1    
    53   23   24 1    
    54   23   53 1    
    55   23   54 1    
    56   24   55 1    
    57   24   56 1    
    58   25   26 1    
    59   25   57 1    
    60   25   58 1    
    61   26   28 1    
    62   26   59 1    
    63   26   60 1    
    64   27   61 1    
    65   28   62 1    
    66   28   63 1    
    67   28   64 1    
@<TRIPOS>SUBSTRUCTURE
     1 UNK         1 GROUP             0       ****    0 ROOT    
