@<TRIPOS>MOLECULE
AVX38780_0
75   78    1
SMALL
USER_CHARGES


@<TRIPOS>ATOM
      1 C1          6.7142  -49.9588    2.7256 C.ar      1 UNK        -0.1150 
      2 C2          8.0865  -50.2518    2.6538 C.ar      1 UNK        -0.1150 
      3 C3          6.2845  -48.6193    2.7200 C.ar      1 UNK        -0.1150 
      4 C4          9.0242  -49.2061    2.5724 C.ar      1 UNK        -0.1150 
      5 C5         11.4487  -44.6598   -1.4093 C.ar      1 UNK        -0.1150 
      6 C6          8.8515  -43.8584    1.4234 C.ar      1 UNK        -0.1150 
      7 C7          7.2828  -41.9985    1.4751 C.ar      1 UNK        -0.1150 
      8 C8         12.2930  -44.5259   -2.5286 C.ar      1 UNK        -0.1150 
      9 C9          9.4915  -43.2918    0.3039 C.ar      1 UNK        -0.1150 
     10 C10         7.9231  -41.4328    0.3554 C.ar      1 UNK        -0.1150 
     11 C11         7.2159  -47.5588    2.6555 C.ar      1 UNK        -0.1150 
     12 C12        13.2817  -45.6563   -0.1451 C.ar      1 UNK        -0.1150 
     13 C13         7.7459  -43.2149    2.0154 C.ar      1 UNK        -0.1150 
     14 C14         8.6104  -47.8545    2.5670 C.ar      1 UNK        -0.1150 
     15 C15        11.9415  -45.2293   -0.2194 C.ar      1 UNK        -0.1150 
     16 C16        13.6311  -44.9614   -2.4647 C.ar      1 UNK         0.0850 
     17 C17        14.1345  -45.5147   -1.2572 C.ar      1 UNK         0.0850 
     18 C18         9.0327  -42.0663   -0.2400 C.ar      1 UNK         0.0850 
     19 C19        10.1112  -48.7022   -1.8454 C.2       1 UNK        -0.2300 
     20 C20        10.2216  -47.5056   -1.2467 C.2       1 UNK        -0.1150 
     21 C21         6.6806  -46.1571    2.6176 C.2       1 UNK         0.6150 
     22 C22        13.7914  -46.2384    1.0965 C.2       1 UNK         0.7150 
     23 C23        18.7081  -46.1192   -3.6087 C.2       1 UNK         0.7000 
     24 C24        16.3047  -45.4346   -2.1730 C.3       1 UNK         0.1400 
     25 C25        15.6273  -45.6005   -3.5423 C.3       1 UNK         0.1700 
     26 C26        10.6523  -42.1085   -2.0121 C.3       1 UNK         0.1100 
     27 C27         7.0947  -43.7989    3.2603 C.3       1 UNK         0.1950 
     28 C28         9.7050  -46.7843    2.4655 C.3       1 UNK         0.2650 
     29 C29        11.0282  -45.3788    0.9889 C.3       1 UNK         0.2650 
     30 C30         9.4812  -47.1021    0.0151 C.3       1 UNK         0.1500 
     31 C31        17.8187  -45.9964   -4.8458 C.3       1 UNK        -0.2200 
     32 C32        16.5572  -45.1244   -4.6547 C.3       1 UNK        -0.1200 
     33 N33         7.3572  -45.2317    3.3047 N.am      1 UNK        -0.5000 
     34 N34        10.3794  -46.7138    1.1394 N.4       1 UNK        -0.1000 
     35 O35        15.0162  -46.2624    1.3366 O.co2     1 UNK        -0.8000 
     36 O36        18.3336  -46.8286   -2.6539 O.co2     1 UNK        -0.8000 
     37 O37         5.6620  -45.9071    1.9714 O.2       1 UNK        -0.5000 
     38 O38        12.9944  -46.6929    1.9442 O.co2     1 UNK        -0.8000 
     39 O39        19.7745  -45.4742   -3.5906 O.co2     1 UNK        -0.8000 
     40 O40        15.4429  -45.9274   -1.1497 O.3       1 UNK        -0.2850 
     41 O41        14.4276  -44.8312   -3.5793 O.3       1 UNK        -0.2850 
     42 O42         9.6090  -41.4337   -1.3194 O.3       1 UNK        -0.2850 
     43 H43         5.9905  -50.7608    2.7807 H         1 UNK         0.1150 
     44 H44         8.4215  -51.2801    2.6546 H         1 UNK         0.1150 
     45 H45         5.2254  -48.4031    2.7669 H         1 UNK         0.1150 
     46 H46        10.0763  -49.4503    2.5067 H         1 UNK         0.1150 
     47 H47        10.4221  -44.3291   -1.4655 H         1 UNK         0.1150 
     48 H48         9.2231  -44.7863    1.8366 H         1 UNK         0.1150 
     49 H49         6.4401  -41.4899    1.9228 H         1 UNK         0.1150 
     50 H50        11.9094  -44.0952   -3.4417 H         1 UNK         0.1150 
     51 H51        10.3379  -43.8173   -0.1134 H         1 UNK         0.1150 
     52 H52         7.5606  -40.4975   -0.0478 H         1 UNK         0.1150 
     53 H53        10.6681  -48.9275   -2.7439 H         1 UNK         0.1150 
     54 H54         9.4651  -49.4747   -1.4528 H         1 UNK         0.1150 
     55 H55        10.8812  -46.7611   -1.6714 H         1 UNK         0.1150 
     56 H56        17.2424  -45.9896   -2.1448 H         1 UNK         0.0300 
     57 H57        16.5449  -44.3883   -1.9841 H         1 UNK         0.0300 
     58 H58        15.4023  -46.6488   -3.7384 H         1 UNK         0.0300 
     59 H59        11.0106  -41.4799   -2.8272 H         1 UNK         0.0300 
     60 H60        11.5012  -42.3118   -1.3575 H         1 UNK         0.0300 
     61 H61        10.3023  -43.0450   -2.4485 H         1 UNK         0.0300 
     62 H62         6.0222  -43.5937    3.2654 H         1 UNK         0.0600 
     63 H63         7.5068  -43.3259    4.1526 H         1 UNK         0.0600 
     64 H64         9.3636  -45.7908    2.7418 H         1 UNK         0.0600 
     65 H65        10.4436  -47.0425    3.2258 H         1 UNK         0.0600 
     66 H66        10.2556  -44.6091    0.9703 H         1 UNK         0.0600 
     67 H67        11.6344  -45.1596    1.8688 H         1 UNK         0.0600 
     68 H68         8.7673  -46.3041   -0.1906 H         1 UNK         0.0600 
     69 H69         8.8945  -47.9782    0.2827 H         1 UNK         0.0600 
     70 H70        17.5267  -46.9930   -5.1812 H         1 UNK         0.0600 
     71 H71        18.4247  -45.5736   -5.6484 H         1 UNK         0.0600 
     72 H72        16.0035  -45.0941   -5.5934 H         1 UNK         0.0600 
     73 H73        16.8578  -44.0944   -4.4584 H         1 UNK         0.0600 
     74 H74         8.1423  -45.5380    3.8618 H         1 UNK         0.3000 
     75 H75        11.1632  -47.3691    1.1753 H         1 UNK         0.2900 
@<TRIPOS>BOND
     1    1    2 ar   
     2    1    3 ar   
     3    1   43 1    
     4    2    4 ar   
     5    2   44 1    
     6    3   11 ar   
     7    3   45 1    
     8    4   14 ar   
     9    4   46 1    
    10    5    8 ar   
    11    5   15 ar   
    12    5   47 1    
    13    6    9 ar   
    14    6   13 ar   
    15    6   48 1    
    16    7   10 ar   
    17    7   13 ar   
    18    7   49 1    
    19    8   16 ar   
    20    8   50 1    
    21    9   18 ar   
    22    9   51 1    
    23   10   18 ar   
    24   10   52 1    
    25   11   14 ar   
    26   11   21 1    
    27   12   15 ar   
    28   12   17 ar   
    29   12   22 1    
    30   13   27 1    
    31   14   28 1    
    32   15   29 1    
    33   16   17 ar   
    34   16   41 1    
    35   17   40 1    
    36   18   42 1    
    37   19   20 2    
    38   19   53 1    
    39   19   54 1    
    40   20   30 1    
    41   20   55 1    
    42   21   33 am   BACKBONE|DICT|INTERRES
    43   21   37 2    
    44   22   35 1    
    45   22   38 2    
    46   23   31 1    
    47   23   36 1    
    48   23   39 2    
    49   24   25 1    
    50   24   40 1    
    51   24   56 1    
    52   24   57 1    
    53   25   32 1    
    54   25   41 1    
    55   25   58 1    
    56   26   42 1    
    57   26   59 1    
    58   26   60 1    
    59   26   61 1    
    60   27   33 1    
    61   27   62 1    
    62   27   63 1    
    63   28   34 1    
    64   28   64 1    
    65   28   65 1    
    66   29   34 1    
    67   29   66 1    
    68   29   67 1    
    69   30   34 1    
    70   30   68 1    
    71   30   69 1    
    72   31   32 1    
    73   31   70 1    
    74   31   71 1    
    75   32   72 1    
    76   32   73 1    
    77   33   74 1    
    78   34   75 1    
@<TRIPOS>SUBSTRUCTURE
     1 UNK         1 GROUP             0       ****    0 ROOT    
