@<TRIPOS>MOLECULE
AVX38743_5
47   50    1
SMALL
USER_CHARGES


@<TRIPOS>ATOM
      1 C1          9.5151  -41.8664   -0.4599 C.ar      1 UNK        -0.1150 
      2 C2          8.2421  -41.5994    0.0853 C.ar      1 UNK        -0.1150 
      3 C3         10.1129  -43.1332   -0.2927 C.ar      1 UNK        -0.1150 
      4 C4         11.5417  -45.4757   -1.9169 C.ar      1 UNK        -0.1150 
      5 C5          7.5563  -42.5931    0.8137 C.ar      1 UNK        -0.1150 
      6 C6         12.4818  -45.0739   -2.8693 C.ar      1 UNK        -0.1150 
      7 C7          9.4104  -44.1391    0.4052 C.ar      1 UNK         0.0000 
      8 C8         11.9407  -45.8552   -0.6183 C.ar      1 UNK         0.0000 
      9 C9         13.3349  -45.8953   -0.2801 C.ar      1 UNK        -0.1150 
     10 C10         8.1647  -43.8525    0.9667 C.ar      1 UNK        -0.1150 
     11 C11        13.8453  -45.0795   -2.5551 C.ar      1 UNK         0.0850 
     12 C12        14.2876  -45.5043   -1.2765 C.ar      1 UNK         0.0850 
     13 C13         9.7674  -45.5370    0.6869 C.2       1 UNK         0.0000 
     14 C14        10.8466  -46.2479    0.2946 C.2       1 UNK        -0.1150 
     15 C15        13.8058  -46.3338    1.1023 C.2       1 UNK         0.7150 
     16 C16        19.4257  -45.8757   -3.2422 C.2       1 UNK         0.7000 
     17 C17         7.6017  -45.0209    1.7355 C.3       1 UNK        -0.0050 
     18 C18        15.9577  -44.2016   -3.0198 C.3       1 UNK         0.1400 
     19 C19         8.6446  -46.1415    1.5260 C.3       1 UNK         0.2050 
     20 C20        16.5560  -45.2535   -2.0723 C.3       1 UNK         0.1700 
     21 C21        18.4818  -46.9199   -2.6321 C.3       1 UNK        -0.2200 
     22 C22        16.9823  -46.5645   -2.7774 C.3       1 UNK        -0.1200 
     23 O23        12.9936  -46.7659    1.9474 O.co2     1 UNK        -0.8000 
     24 O24        20.6091  -45.8462   -2.8433 O.co2     1 UNK        -0.8000 
     25 O25        15.0158  -46.2741    1.4032 O.co2     1 UNK        -0.8000 
     26 O26        18.9607  -45.0743   -4.0774 O.co2     1 UNK        -0.8000 
     27 O27        14.7224  -44.6741   -3.5268 O.3       1 UNK        -0.2850 
     28 O28        15.6456  -45.5121   -1.0065 O.3       1 UNK        -0.2850 
     29 O29         9.1242  -46.6733    2.7477 O.3       1 UNK        -0.6830 
     30 H30        10.0373  -41.0895   -1.0011 H         1 UNK         0.1150 
     31 H31         7.8024  -40.6210   -0.0402 H         1 UNK         0.1150 
     32 H32        11.0972  -43.3013   -0.6891 H         1 UNK         0.1150 
     33 H33        10.4947  -45.4630   -2.1806 H         1 UNK         0.1150 
     34 H34         6.5907  -42.3878    1.2509 H         1 UNK         0.1150 
     35 H35        12.1505  -44.7647   -3.8483 H         1 UNK         0.1150 
     36 H36        10.8876  -47.2785    0.6205 H         1 UNK         0.1150 
     37 H37         7.4912  -44.7465    2.7838 H         1 UNK         0.0600 
     38 H38         6.6246  -45.3040    1.3513 H         1 UNK         0.0600 
     39 H39        15.7967  -43.2589   -2.4975 H         1 UNK         0.0300 
     40 H40        16.6244  -43.9884   -3.8547 H         1 UNK         0.0300 
     41 H41         8.2002  -46.9540    0.9511 H         1 UNK         0.0600 
     42 H42        17.4280  -44.8073   -1.5939 H         1 UNK         0.0300 
     43 H43        18.7401  -47.0396   -1.5815 H         1 UNK         0.0600 
     44 H44        18.6810  -47.8796   -3.1092 H         1 UNK         0.0600 
     45 H45        16.3962  -47.3913   -2.3762 H         1 UNK         0.0600 
     46 H46        16.7275  -46.5174   -3.8367 H         1 UNK         0.0600 
     47 H47         9.4155  -45.9656    3.3154 H         1 UNK         0.4180 
@<TRIPOS>BOND
     1    1    2 ar   
     2    1    3 ar   
     3    1   30 1    
     4    2    5 ar   
     5    2   31 1    
     6    3    7 ar   
     7    3   32 1    
     8    4    6 ar   
     9    4    8 ar   
    10    4   33 1    
    11    5   10 ar   
    12    5   34 1    
    13    6   11 ar   
    14    6   35 1    
    15    7   10 ar   
    16    7   13 1    
    17    8    9 ar   
    18    8   14 1    
    19    9   12 ar   
    20    9   15 1    
    21   10   17 1    
    22   11   12 ar   
    23   11   27 1    
    24   12   28 1    
    25   13   14 2    
    26   13   19 1    
    27   14   36 1    
    28   15   23 1    
    29   15   25 2    
    30   16   21 1    
    31   16   24 1    
    32   16   26 2    
    33   17   19 1    
    34   17   37 1    
    35   17   38 1    
    36   18   20 1    
    37   18   27 1    
    38   18   39 1    
    39   18   40 1    
    40   19   29 1    
    41   19   41 1    
    42   20   22 1    
    43   20   28 1    
    44   20   42 1    
    45   21   22 1    
    46   21   43 1    
    47   21   44 1    
    48   22   45 1    
    49   22   46 1    
    50   29   47 1    
@<TRIPOS>SUBSTRUCTURE
     1 UNK         1 GROUP             0       ****    0 ROOT    
