@<TRIPOS>MOLECULE
AVX38742_3
47   50    1
SMALL
USER_CHARGES


@<TRIPOS>ATOM
      1 C1         10.2818  -41.8106   -1.1236 C.ar      1 UNK        -0.1150 
      2 C2          8.9916  -41.3327   -0.8080 C.ar      1 UNK        -0.1150 
      3 C3         10.7186  -43.0668   -0.6494 C.ar      1 UNK        -0.1150 
      4 C4         11.5202  -45.5924   -1.9585 C.ar      1 UNK        -0.1150 
      5 C5          8.1298  -42.1055   -0.0049 C.ar      1 UNK        -0.1150 
      6 C6         12.4820  -45.3972   -2.9688 C.ar      1 UNK        -0.1150 
      7 C7          9.8518  -43.8595    0.1394 C.ar      1 UNK         0.0000 
      8 C8         11.9293  -45.8984   -0.6462 C.ar      1 UNK         0.0000 
      9 C9         13.3006  -46.0000   -0.3414 C.ar      1 UNK        -0.1150 
     10 C10         8.5842  -43.3550    0.4528 C.ar      1 UNK        -0.1150 
     11 C11        13.8547  -45.5087   -2.6732 C.ar      1 UNK         0.0850 
     12 C12        14.2679  -45.7946   -1.3446 C.ar      1 UNK         0.0850 
     13 C13        10.0158  -45.1605    0.7475 C.2       1 UNK        -0.0033 
     14 C14         8.8866  -45.3501    1.6602 C.2       1 UNK         0.3569 
     15 C15        10.9305  -46.1059    0.4025 C.2       1 UNK        -0.1150 
     16 C16        13.7206  -46.3087    1.0256 C.2       1 UNK         0.7150 
     17 C17        19.2907  -45.9576   -3.3260 C.2       1 UNK         0.7000 
     18 C18         7.8205  -44.2950    1.3560 C.3       1 UNK         0.0311 
     19 C19        16.4896  -45.3288   -1.9785 C.3       1 UNK         0.1400 
     20 C20        16.0831  -45.7961   -3.3848 C.3       1 UNK         0.1700 
     21 C21        18.3739  -46.0470   -4.5457 C.3       1 UNK        -0.2200 
     22 C22        17.0552  -45.2498   -4.4265 C.3       1 UNK        -0.1200 
     23 N23         8.7861  -46.2978    2.6474 N.2       1 UNK        -0.3962 
     24 O24        14.9282  -46.2685    1.3455 O.co2     1 UNK        -0.8000 
     25 O25        18.8709  -46.3404   -2.2159 O.co2     1 UNK        -0.8000 
     26 O26        12.8813  -46.6191    1.8977 O.co2     1 UNK        -0.8000 
     27 O27        20.4283  -45.4736   -3.4851 O.co2     1 UNK        -0.8000 
     28 O28        15.6004  -45.8858   -1.0133 O.3       1 UNK        -0.2850 
     29 O29        14.7704  -45.3274   -3.6843 O.3       1 UNK        -0.2850 
     30 O30         9.9074  -47.0924    2.9199 O.3       1 UNK        -0.3836 
     31 H31        10.9444  -41.2070   -1.7284 H         1 UNK         0.1150 
     32 H32         8.6685  -40.3674   -1.1734 H         1 UNK         0.1150 
     33 H33        11.7202  -43.3854   -0.8913 H         1 UNK         0.1150 
     34 H34        10.4688  -45.5110   -2.1918 H         1 UNK         0.1150 
     35 H35         7.1456  -41.7417    0.2573 H         1 UNK         0.1150 
     36 H36        12.1642  -45.1697   -3.9756 H         1 UNK         0.1150 
     37 H37        10.8782  -47.0850    0.8489 H         1 UNK         0.1150 
     38 H38         7.4956  -43.7913    2.2666 H         1 UNK         0.0600 
     39 H39         6.9609  -44.7351    0.8501 H         1 UNK         0.0600 
     40 H40        17.5061  -45.6504   -1.7518 H         1 UNK         0.0300 
     41 H41        16.4747  -44.2409   -1.9127 H         1 UNK         0.0300 
     42 H42        16.1141  -46.8834   -3.4555 H         1 UNK         0.0300 
     43 H43        18.1497  -47.0948   -4.7529 H         1 UNK         0.0600 
     44 H44        18.9333  -45.6821   -5.4082 H         1 UNK         0.0600 
     45 H45        16.5634  -45.2338   -5.3993 H         1 UNK         0.0600 
     46 H46        17.2837  -44.2083   -4.1962 H         1 UNK         0.0600 
     47 H47         9.7564  -47.6062    3.7055 H         1 UNK         0.3901 
@<TRIPOS>BOND
     1    1    2 ar   
     2    1    3 ar   
     3    1   31 1    
     4    2    5 ar   
     5    2   32 1    
     6    3    7 ar   
     7    3   33 1    
     8    4    6 ar   
     9    4    8 ar   
    10    4   34 1    
    11    5   10 ar   
    12    5   35 1    
    13    6   11 ar   
    14    6   36 1    
    15    7   10 ar   
    16    7   13 1    
    17    8    9 ar   
    18    8   15 1    
    19    9   12 ar   
    20    9   16 1    
    21   10   18 1    
    22   11   12 ar   
    23   11   29 1    
    24   12   28 1    
    25   13   14 1    
    26   13   15 2    
    27   14   18 1    
    28   14   23 2    
    29   15   37 1    
    30   16   24 1    
    31   16   26 2    
    32   17   21 1    
    33   17   25 1    
    34   17   27 2    
    35   18   38 1    
    36   18   39 1    
    37   19   20 1    
    38   19   28 1    
    39   19   40 1    
    40   19   41 1    
    41   20   22 1    
    42   20   29 1    
    43   20   42 1    
    44   21   22 1    
    45   21   43 1    
    46   21   44 1    
    47   22   45 1    
    48   22   46 1    
    49   23   30 1    
    50   30   47 1    
@<TRIPOS>SUBSTRUCTURE
     1 UNK         1 GROUP             0       ****    0 ROOT    
