@<TRIPOS>MOLECULE
AVX40911_0
31   33    1
SMALL
USER_CHARGES


@<TRIPOS>ATOM
      1 C1          9.2536  -40.9621   -1.3375 C.ar      1 UNK        -0.1150 
      2 C2          8.5946  -41.1892   -0.1305 C.ar      1 UNK        -0.1150 
      3 C3         10.1872  -41.8858   -1.8041 C.ar      1 UNK        -0.1150 
      4 C4          8.8732  -42.3387    0.6133 C.ar      1 UNK        -0.1150 
      5 C5         10.4660  -43.0357   -1.0609 C.ar      1 UNK        -0.1150 
      6 C6         11.5358  -45.0510   -1.6833 C.ar      1 UNK        -0.1150 
      7 C7         12.4153  -45.0593   -2.7689 C.ar      1 UNK        -0.1150 
      8 C8          9.8213  -43.2649    0.1611 C.ar      1 UNK         0.0000 
      9 C9         11.9481  -45.4799   -0.3986 C.ar      1 UNK         0.0000 
     10 C10        13.2800  -45.9064   -0.1960 C.ar      1 UNK        -0.1150 
     11 C11        13.7018  -45.4915   -2.5432 C.ar      1 UNK         0.0850 
     12 C12        14.1247  -45.9011   -1.2988 C.ar      1 UNK         0.0850 
     13 C13        10.0729  -44.4750    0.9544 C.2       1 UNK        -0.1150 
     14 C14        10.9767  -45.4388    0.7069 C.2       1 UNK        -0.1150 
     15 C15        13.7873  -46.3543    1.1263 C.2       1 UNK         0.7150 
     16 C16        15.7851  -46.0622   -2.6947 C.3       1 UNK         0.2000 
     17 O17        15.0158  -46.1604    1.3957 O.co2     1 UNK        -0.8000 
     18 O18        12.9650  -46.8937    1.9314 O.co2     1 UNK        -0.8000 
     19 O19        14.6837  -45.5599   -3.4816 O.3       1 UNK        -0.2850 
     20 O20        15.4364  -46.2737   -1.3087 O.3       1 UNK        -0.2850 
     21 H21         9.0362  -40.0669   -1.9170 H         1 UNK         0.1150 
     22 H22         7.8613  -40.4718    0.2329 H         1 UNK         0.1150 
     23 H23        10.6972  -41.7142   -2.7500 H         1 UNK         0.1150 
     24 H24         8.3479  -42.5009    1.5533 H         1 UNK         0.1150 
     25 H25        11.1884  -43.7522   -1.4479 H         1 UNK         0.1150 
     26 H26        10.5140  -44.7062   -1.8419 H         1 UNK         0.1150 
     27 H27        12.0917  -44.7335   -3.7520 H         1 UNK         0.1150 
     28 H28         9.4450  -44.5730    1.8399 H         1 UNK         0.1150 
     29 H29        11.0259  -46.2907    1.3852 H         1 UNK         0.1150 
     30 H30        16.1184  -47.0145   -3.1227 H         1 UNK         0.1000 
     31 H31        16.6098  -45.3422   -2.7436 H         1 UNK         0.1000 
@<TRIPOS>BOND
     1    1    2 ar   
     2    1    3 ar   
     3    1   21 1    
     4    2    4 ar   
     5    2   22 1    
     6    3    5 ar   
     7    3   23 1    
     8    4    8 ar   
     9    4   24 1    
    10    5    8 ar   
    11    5   25 1    
    12    6    7 ar   
    13    6    9 ar   
    14    6   26 1    
    15    7   11 ar   
    16    7   27 1    
    17    8   13 1    
    18    9   10 ar   
    19    9   14 1    
    20   10   12 ar   
    21   10   15 1    
    22   11   12 ar   
    23   11   19 1    
    24   12   20 1    
    25   13   14 2    
    26   13   28 1    
    27   14   29 1    
    28   15   17 1    
    29   15   18 2    
    30   16   19 1    
    31   16   20 1    
    32   16   30 1    
    33   16   31 1    
@<TRIPOS>SUBSTRUCTURE
     1 UNK         1 GROUP             0       ****    0 ROOT    
