@<TRIPOS>MOLECULE
AVX40811_0
51   53    1
SMALL
USER_CHARGES


@<TRIPOS>ATOM
      1 C1          3.8182  -44.4838    3.1874 C.ar      1 UNK        -0.4470 
      2 C2          4.8636  -43.8888    2.4837 C.ar      1 UNK         0.2270 
      3 C3         11.6047  -45.0174   -1.8259 C.ar      1 UNK        -0.1150 
      4 C4         12.5248  -45.0679   -2.8755 C.ar      1 UNK        -0.1150 
      5 C5          4.1124  -45.1554    4.3623 C.ar      1 UNK         0.4730 
      6 C6          6.3653  -44.6816    4.1554 C.ar      1 UNK         0.4730 
      7 C7          6.1720  -43.9903    2.9656 C.ar      1 UNK        -0.4070 
      8 C8         13.3008  -45.7823   -0.2375 C.ar      1 UNK        -0.1150 
      9 C9         11.9667  -45.3827   -0.5047 C.ar      1 UNK        -0.1150 
     10 C10        13.8046  -45.4790   -2.5840 C.ar      1 UNK         0.0850 
     11 C11        14.1852  -45.8214   -1.3072 C.ar      1 UNK         0.0850 
     12 C12         7.2782  -43.3440    2.2145 C.2       1 UNK         0.6150 
     13 C13        13.7648  -46.2032    1.1113 C.2       1 UNK         0.7150 
     14 C14        15.8819  -46.0835   -2.6396 C.3       1 UNK         0.2000 
     15 C15         8.8687  -41.2402    0.1654 C.3       1 UNK        -0.1800 
     16 C16         9.9591  -41.1098   -2.0809 C.3       1 UNK        -0.1800 
     17 C17        10.8997  -45.3182    0.5779 C.3       1 UNK        -0.0050 
     18 C18        10.3271  -43.1605   -0.6785 C.3       1 UNK        -0.1200 
     19 C19         9.7149  -43.3498    1.7395 C.3       1 UNK         0.0800 
     20 C20         9.3236  -42.0483   -1.0498 C.3       1 UNK        -0.0600 
     21 C21         9.8832  -44.1546    0.4268 C.3       1 UNK        -0.0600 
     22 N22         5.3629  -45.2681    4.8679 N.ar      1 UNK        -0.6780 
     23 N23         8.5591  -43.7392    2.5189 N.am      1 UNK        -0.5000 
     24 O24        15.0121  -46.1684    1.3534 O.co2     1 UNK        -0.8000 
     25 O25         7.0214  -42.5163    1.3423 O.2       1 UNK        -0.5000 
     26 O26        12.8783  -46.5634    1.9468 O.co2     1 UNK        -0.8000 
     27 O27        14.8167  -45.5986   -3.4844 O.3       1 UNK        -0.2850 
     28 O28        15.4932  -46.2017   -1.2543 O.3       1 UNK        -0.2850 
     29 H29         2.7958  -44.4216    2.8274 H         1 UNK         0.1550 
     30 H30         4.6531  -43.3563    1.5589 H         1 UNK         0.0650 
     31 H31        10.5870  -44.6923   -2.0412 H         1 UNK         0.1150 
     32 H32        12.2354  -44.7950   -3.8852 H         1 UNK         0.1150 
     33 H33         3.3235  -45.6302    4.9417 H         1 UNK         0.0120 
     34 H34         7.3504  -44.7803    4.6043 H         1 UNK         0.0120 
     35 H35        16.1993  -47.0679   -3.0020 H         1 UNK         0.1000 
     36 H36        16.7278  -45.3905   -2.7087 H         1 UNK         0.1000 
     37 H37         8.2299  -40.4046   -0.1408 H         1 UNK         0.0600 
     38 H38         8.2849  -41.8538    0.8569 H         1 UNK         0.0600 
     39 H39         9.7240  -40.8280    0.7114 H         1 UNK         0.0600 
     40 H40         9.2500  -40.3348   -2.3911 H         1 UNK         0.0600 
     41 H41        10.8467  -40.6131   -1.6742 H         1 UNK         0.0600 
     42 H42        10.2599  -41.6628   -2.9771 H         1 UNK         0.0600 
     43 H43        11.4479  -45.2287    1.5224 H         1 UNK         0.0600 
     44 H44        10.3588  -46.2676    0.6592 H         1 UNK         0.0600 
     45 H45        10.5717  -43.7321   -1.5841 H         1 UNK         0.0600 
     46 H46        11.2627  -42.6798   -0.3611 H         1 UNK         0.0600 
     47 H47         9.6177  -42.2814    1.5135 H         1 UNK         0.0600 
     48 H48        10.5933  -43.4744    2.3826 H         1 UNK         0.0600 
     49 H49         8.4387  -42.4893   -1.5205 H         1 UNK         0.0600 
     50 H50         8.9003  -44.5555    0.1557 H         1 UNK         0.0600 
     51 H51         8.7355  -44.4539    3.2360 H         1 UNK         0.3000 
@<TRIPOS>BOND
     1    1    2 ar   
     2    1    5 ar   
     3    1   29 1    
     4    2    7 ar   
     5    2   30 1    
     6    3    4 ar   
     7    3    9 ar   
     8    3   31 1    
     9    4   10 ar   
    10    4   32 1    
    11    5   22 ar   
    12    5   33 1    
    13    6    7 ar   
    14    6   22 ar   
    15    6   34 1    
    16    7   12 1    
    17    8    9 ar   
    18    8   11 ar   
    19    8   13 1    
    20    9   17 1    
    21   10   11 ar   
    22   10   27 1    
    23   11   28 1    
    24   12   23 am   BACKBONE|DICT|INTERRES
    25   12   25 2    
    26   13   24 1    
    27   13   26 2    
    28   14   27 1    
    29   14   28 1    
    30   14   35 1    
    31   14   36 1    
    32   15   20 1    
    33   15   37 1    
    34   15   38 1    
    35   15   39 1    
    36   16   20 1    
    37   16   40 1    
    38   16   41 1    
    39   16   42 1    
    40   17   21 1    
    41   17   43 1    
    42   17   44 1    
    43   18   20 1    
    44   18   21 1    
    45   18   45 1    
    46   18   46 1    
    47   19   21 1    
    48   19   23 1    
    49   19   47 1    
    50   19   48 1    
    51   20   49 1    
    52   21   50 1    
    53   23   51 1    
@<TRIPOS>SUBSTRUCTURE
     1 UNK         1 GROUP             0       ****    0 ROOT    
