@<TRIPOS>MOLECULE
AVX40812_0
59   62    1
SMALL
USER_CHARGES


@<TRIPOS>ATOM
      1 C1          1.9319  -46.1279    5.0388 C.ar      1 UNK        -0.2222 
      2 C2          1.8009  -45.2153    6.1035 C.ar      1 UNK        -0.0888 
      3 C3          3.0798  -46.1080    4.2197 C.ar      1 UNK        -0.2243 
      4 C4         11.3609  -45.0436   -1.7474 C.ar      1 UNK        -0.1150 
      5 C5          2.8211  -44.2790    6.3513 C.ar      1 UNK        -0.3541 
      6 C6         12.2039  -45.0715   -2.8729 C.ar      1 UNK        -0.1150 
      7 C7          5.9364  -43.8522    4.4950 C.ar      1 UNK        -0.1072 
      8 C8          4.1222  -45.1765    4.4405 C.ar      1 UNK         0.1233 
      9 C9         13.2049  -45.7762   -0.2778 C.ar      1 UNK        -0.1150 
     10 C10        11.8514  -45.3212   -0.4404 C.ar      1 UNK        -0.1150 
     11 C11         5.3866  -44.9075    3.8040 C.ar      1 UNK        -0.1749 
     12 C12         3.9601  -44.2657    5.5273 C.ar      1 UNK         0.2860 
     13 C13        13.5458  -45.4107   -2.6752 C.ar      1 UNK         0.0850 
     14 C14        14.0274  -45.7666   -1.4323 C.ar      1 UNK         0.0850 
     15 C15        13.7754  -46.2609    1.0382 C.2       1 UNK         0.7150 
     16 C16         6.9745  -44.8059    1.8506 C.2       1 UNK         0.5000 
     17 C17        15.6983  -45.8087   -2.8886 C.3       1 UNK         0.2000 
     18 C18         8.4473  -40.8982   -0.1621 C.3       1 UNK        -0.1800 
     19 C19        10.1095  -41.2108   -2.0525 C.3       1 UNK        -0.1800 
     20 C20         5.9741  -45.6602    2.6319 C.3       1 UNK        -0.0641 
     21 C21        10.9190  -45.0706    0.7573 C.3       1 UNK        -0.0050 
     22 C22        10.3497  -42.6148    0.0320 C.3       1 UNK        -0.1200 
     23 C23         9.1561  -43.6894    1.9605 C.3       1 UNK         0.0800 
     24 C24         9.3549  -41.8954   -0.9082 C.3       1 UNK        -0.0600 
     25 C25         9.8363  -43.9618    0.6044 C.3       1 UNK        -0.0600 
     26 N26         5.0894  -43.4745    5.5198 N.ar      1 UNK        -0.4786 
     27 N27         8.2157  -44.7260    2.3474 N.am      1 UNK        -0.5000 
     28 O28        15.0158  -46.2743    1.1921 O.co2     1 UNK        -0.8000 
     29 O29        13.0158  -46.6731    1.9440 O.co2     1 UNK        -0.8000 
     30 O30         6.6160  -44.1818    0.8530 O.2       1 UNK        -0.5000 
     31 O31        14.5388  -45.4737   -3.5990 O.3       1 UNK        -0.2850 
     32 O32        15.3485  -46.0806   -1.5585 O.3       1 UNK        -0.2850 
     33 H33         1.1495  -46.8486    4.8510 H         1 UNK         0.1489 
     34 H34         0.9201  -45.2350    6.7290 H         1 UNK         0.1359 
     35 H35         3.1672  -46.8151    3.4080 H         1 UNK         0.1699 
     36 H36        10.3337  -44.7497   -1.8984 H         1 UNK         0.1150 
     37 H37         2.7292  -43.5752    7.1649 H         1 UNK         0.1796 
     38 H38        11.8307  -44.8195   -3.8542 H         1 UNK         0.1150 
     39 H39         6.8749  -43.3360    4.3479 H         1 UNK         0.1929 
     40 H40        16.1841  -46.6747   -3.3386 H         1 UNK         0.1000 
     41 H41        16.3871  -44.9636   -2.9112 H         1 UNK         0.1000 
     42 H42         7.9187  -40.2441   -0.8540 H         1 UNK         0.0600 
     43 H43         7.6883  -41.4143    0.4256 H         1 UNK         0.0600 
     44 H44         9.0095  -40.2536    0.5122 H         1 UNK         0.0600 
     45 H45         9.4217  -40.6702   -2.6999 H         1 UNK         0.0600 
     46 H46        10.8569  -40.5128   -1.6826 H         1 UNK         0.0600 
     47 H47        10.6275  -41.9449   -2.6712 H         1 UNK         0.0600 
     48 H48         6.4672  -46.5704    2.9750 H         1 UNK         0.0600 
     49 H49         5.1845  -45.9785    1.9501 H         1 UNK         0.0600 
     50 H50        11.5253  -44.7778    1.6125 H         1 UNK         0.0600 
     51 H51        10.4481  -46.0165    1.0269 H         1 UNK         0.0600 
     52 H52        11.2871  -42.7636   -0.4993 H         1 UNK         0.0600 
     53 H53        10.6160  -41.9428    0.8476 H         1 UNK         0.0600 
     54 H54         8.6186  -42.7419    1.9490 H         1 UNK         0.0600 
     55 H55         9.9033  -43.5816    2.7471 H         1 UNK         0.0600 
     56 H56         8.7067  -42.6320   -1.3841 H         1 UNK         0.0600 
     57 H57         9.0931  -44.3552   -0.0882 H         1 UNK         0.0600 
     58 H58         5.3154  -42.7265    6.1661 H         1 UNK         0.3577 
     59 H59         8.4471  -45.2539    3.1810 H         1 UNK         0.3000 
@<TRIPOS>BOND
     1    1    2 ar   
     2    1    3 ar   
     3    1   33 1    
     4    2    5 ar   
     5    2   34 1    
     6    3    8 ar   
     7    3   35 1    
     8    4    6 ar   
     9    4   10 ar   
    10    4   36 1    
    11    5   12 ar   
    12    5   37 1    
    13    6   13 ar   
    14    6   38 1    
    15    7   11 ar   
    16    7   26 ar   
    17    7   39 1    
    18    8   11 ar   
    19    8   12 ar   
    20    9   10 ar   
    21    9   14 ar   
    22    9   15 1    
    23   10   21 1    
    24   11   20 1    
    25   12   26 ar   
    26   13   14 ar   
    27   13   31 1    
    28   14   32 1    
    29   15   28 1    
    30   15   29 2    
    31   16   20 1    
    32   16   27 am   BACKBONE|DICT|INTERRES
    33   16   30 2    
    34   17   31 1    
    35   17   32 1    
    36   17   40 1    
    37   17   41 1    
    38   18   24 1    
    39   18   42 1    
    40   18   43 1    
    41   18   44 1    
    42   19   24 1    
    43   19   45 1    
    44   19   46 1    
    45   19   47 1    
    46   20   48 1    
    47   20   49 1    
    48   21   25 1    
    49   21   50 1    
    50   21   51 1    
    51   22   24 1    
    52   22   25 1    
    53   22   52 1    
    54   22   53 1    
    55   23   25 1    
    56   23   27 1    
    57   23   54 1    
    58   23   55 1    
    59   24   56 1    
    60   25   57 1    
    61   26   58 1    
    62   27   59 1    
@<TRIPOS>SUBSTRUCTURE
     1 UNK         1 GROUP             0       ****    0 ROOT    
