@<TRIPOS>MOLECULE
GL5243-100_0
53   55    1
SMALL
USER_CHARGES


@<TRIPOS>ATOM
      1 C1         11.6722  -44.9588   -1.8118 C.ar      1 UNK        -0.1150 
      2 C2         12.6019  -44.9989   -2.8528 C.ar      1 UNK        -0.1150 
      3 C3          5.8723  -44.2443    4.5966 C.ar      1 UNK        -0.1490 
      4 C4          4.7057  -43.8769    5.2282 C.ar      1 UNK        -0.1630 
      5 C5          4.2252  -45.6021    3.8939 C.ar      1 UNK        -0.1630 
      6 C6         13.3240  -45.8455   -0.2361 C.ar      1 UNK        -0.1150 
      7 C7         12.0087  -45.3860   -0.5022 C.ar      1 UNK        -0.1150 
      8 C8          5.5768  -45.3488    3.7469 C.ar      1 UNK        -0.1460 
      9 C9         13.8644  -45.4627   -2.5641 C.ar      1 UNK         0.0850 
     10 C10        14.2184  -45.8718   -1.2987 C.ar      1 UNK         0.0850 
     11 C11        13.7716  -46.2902    1.1124 C.2       1 UNK         0.7150 
     12 C12         7.2270  -45.1275    1.8801 C.2       1 UNK         0.5000 
     13 C13        15.9339  -46.0963   -2.6169 C.3       1 UNK         0.2000 
     14 C14         8.6268  -41.3781    0.0866 C.3       1 UNK        -0.1800 
     15 C15         9.8176  -41.1527   -2.1019 C.3       1 UNK        -0.1800 
     16 C16         6.5397  -46.0730    2.8581 C.3       1 UNK        -0.0050 
     17 C17        10.9420  -45.3050    0.5768 C.3       1 UNK        -0.0050 
     18 C18        10.2780  -43.1734   -0.6817 C.3       1 UNK        -0.1200 
     19 C19         9.2265  -43.6627    1.5814 C.3       1 UNK         0.0800 
     20 C20         9.2098  -42.1419   -1.1023 C.3       1 UNK        -0.0600 
     21 C21         9.8134  -44.2844    0.2930 C.3       1 UNK        -0.0600 
     22 N22         3.7056  -44.7089    4.7965 N.ar      1 UNK        -0.2390 
     23 N23         8.3945  -44.5690    2.3480 N.am      1 UNK        -0.5000 
     24 O24        12.8786  -46.6484    1.9430 O.co2     1 UNK        -0.8000 
     25 O25        15.0160  -46.2743    1.3641 O.co2     1 UNK        -0.8000 
     26 O26         6.7706  -44.8842    0.7613 O.2       1 UNK        -0.5000 
     27 O27        14.8845  -45.5703   -3.4572 O.3       1 UNK        -0.2850 
     28 O28        15.5137  -46.2951   -1.2494 O.3       1 UNK        -0.2850 
     29 H29        10.6706  -44.5837   -2.0234 H         1 UNK         0.1150 
     30 H30        12.3349  -44.6728   -3.8529 H         1 UNK         0.1150 
     31 H31         6.8385  -43.7696    4.7302 H         1 UNK         0.1180 
     32 H32         4.4949  -43.0947    5.9472 H         1 UNK         0.1550 
     33 H33         3.5824  -46.3443    3.4354 H         1 UNK         0.1550 
     34 H34        16.2640  -47.0577   -3.0263 H         1 UNK         0.1000 
     35 H35        16.7775  -45.3969   -2.6274 H         1 UNK         0.1000 
     36 H36         7.9409  -40.5945   -0.2534 H         1 UNK         0.0600 
     37 H37         8.0567  -42.0402    0.7450 H         1 UNK         0.0600 
     38 H38         9.4160  -40.9022    0.6783 H         1 UNK         0.0600 
     39 H39         9.0635  -40.4392   -2.4509 H         1 UNK         0.0600 
     40 H40        10.6383  -40.5843   -1.6509 H         1 UNK         0.0600 
     41 H41        10.2098  -41.6777   -2.9794 H         1 UNK         0.0600 
     42 H42         6.0158  -46.8720    2.3223 H         1 UNK         0.0600 
     43 H43         7.3227  -46.5586    3.4531 H         1 UNK         0.0600 
     44 H44        10.5060  -46.2890    0.7790 H         1 UNK         0.0600 
     45 H45        11.4667  -45.0330    1.5010 H         1 UNK         0.0600 
     46 H46        11.1166  -42.6354   -0.2193 H         1 UNK         0.0600 
     47 H47        10.6762  -43.6401   -1.5919 H         1 UNK         0.0600 
     48 H48        10.0409  -43.2950    2.2162 H         1 UNK         0.0600 
     49 H49         8.6034  -42.7953    1.3398 H         1 UNK         0.0600 
     50 H50         8.3910  -42.6571   -1.6171 H         1 UNK         0.0600 
     51 H51         8.9779  -44.8124   -0.1829 H         1 UNK         0.0600 
     52 H52         2.7357  -44.6686    5.0936 H         1 UNK         0.3170 
     53 H53         8.7314  -44.8332    3.2868 H         1 UNK         0.3000 
@<TRIPOS>BOND
     1    1    2 ar   
     2    1    7 ar   
     3    1   29 1    
     4    2    9 ar   
     5    2   30 1    
     6    3    4 ar   
     7    3    8 ar   
     8    3   31 1    
     9    4   22 ar   
    10    4   32 1    
    11    5    8 ar   
    12    5   22 ar   
    13    5   33 1    
    14    6    7 ar   
    15    6   10 ar   
    16    6   11 1    
    17    7   17 1    
    18    8   16 1    
    19    9   10 ar   
    20    9   27 1    
    21   10   28 1    
    22   11   24 1    
    23   11   25 2    
    24   12   16 1    
    25   12   23 am   BACKBONE|DICT|INTERRES
    26   12   26 2    
    27   13   27 1    
    28   13   28 1    
    29   13   34 1    
    30   13   35 1    
    31   14   20 1    
    32   14   36 1    
    33   14   37 1    
    34   14   38 1    
    35   15   20 1    
    36   15   39 1    
    37   15   40 1    
    38   15   41 1    
    39   16   42 1    
    40   16   43 1    
    41   17   21 1    
    42   17   44 1    
    43   17   45 1    
    44   18   20 1    
    45   18   21 1    
    46   18   46 1    
    47   18   47 1    
    48   19   21 1    
    49   19   23 1    
    50   19   48 1    
    51   19   49 1    
    52   20   50 1    
    53   21   51 1    
    54   22   52 1    
    55   23   53 1    
@<TRIPOS>SUBSTRUCTURE
     1 UNK         1 GROUP             0       ****    0 ROOT    
