@<TRIPOS>MOLECULE
GL5243-106_0
54   56    1
SMALL
USER_CHARGES


@<TRIPOS>ATOM
      1 C1          5.6496  -45.1601    2.6398 C.ar      1 UNK        -0.1150 
      2 C2          6.2119  -43.2617    4.0617 C.ar      1 UNK        -0.1150 
      3 C3         11.7996  -45.2929   -2.0416 C.ar      1 UNK        -0.1150 
      4 C4          4.6265  -45.5283    3.5351 C.ar      1 UNK        -0.1150 
      5 C5          5.1890  -43.6308    4.9572 C.ar      1 UNK        -0.1150 
      6 C6         12.8060  -45.3144   -3.0275 C.ar      1 UNK        -0.1150 
      7 C7          6.4443  -44.0189    2.8895 C.ar      1 UNK        -0.1150 
      8 C8         13.4121  -45.9639   -0.2928 C.ar      1 UNK        -0.1150 
      9 C9         12.0764  -45.6163   -0.6853 C.ar      1 UNK        -0.1150 
     10 C10         4.3936  -44.7632    4.6944 C.ar      1 UNK         0.1800 
     11 C11        14.0990  -45.6672   -2.6254 C.ar      1 UNK         0.0850 
     12 C12        14.3921  -45.9801   -1.3133 C.ar      1 UNK         0.0850 
     13 C13         7.5409  -43.6491    1.9325 C.2       1 UNK         0.6150 
     14 C14        13.8100  -46.3194    1.1213 C.2       1 UNK         0.7150 
     15 C15        16.2454  -46.1366   -2.5138 C.3       1 UNK         0.2000 
     16 C16         9.1402  -41.4791    0.1937 C.3       1 UNK        -0.1800 
     17 C17        10.1931  -41.1238   -2.0731 C.3       1 UNK        -0.1800 
     18 C18        10.8857  -45.6108    0.2743 C.3       1 UNK        -0.0050 
     19 C19        10.4627  -43.3649   -0.9194 C.3       1 UNK        -0.1200 
     20 C20        10.0085  -43.6416    1.6006 C.3       1 UNK         0.0800 
     21 C21         9.5363  -42.1471   -1.1351 C.3       1 UNK        -0.0600 
     22 C22        10.0195  -44.3288    0.2162 C.3       1 UNK        -0.0600 
     23 N23         3.3816  -45.1275    5.5808 N.2       1 UNK        -0.9000 
     24 N24         8.7875  -43.9156    2.3534 N.am      1 UNK        -0.5000 
     25 O25        15.0150  -46.2286    1.4454 O.co2     1 UNK        -0.8000 
     26 O26         7.2877  -43.0811    0.8704 O.2       1 UNK        -0.5000 
     27 O27        12.9387  -46.6823    1.9411 O.co2     1 UNK        -0.8000 
     28 O28        15.2185  -45.7553   -3.3872 O.3       1 UNK        -0.2850 
     29 O29        15.7195  -46.2668   -1.2211 O.3       1 UNK        -0.2850 
     30 H30         5.8167  -45.7578    1.7550 H         1 UNK         0.1150 
     31 H31         6.8165  -42.3959    4.2890 H         1 UNK         0.1150 
     32 H32        10.7937  -45.0367   -2.3399 H         1 UNK         0.1150 
     33 H33         4.0240  -46.4004    3.3269 H         1 UNK         0.1150 
     34 H34         5.0210  -43.0419    5.8471 H         1 UNK         0.1150 
     35 H35        12.5878  -45.0720   -4.0569 H         1 UNK         0.1150 
     36 H36        16.6641  -47.0909   -2.8347 H         1 UNK         0.1000 
     37 H37        17.0285  -45.3779   -2.5146 H         1 UNK         0.1000 
     38 H38         8.4995  -40.6143    0.0202 H         1 UNK         0.0600 
     39 H39         8.5887  -42.1590    0.8425 H         1 UNK         0.0600 
     40 H40        10.0175  -41.1368    0.7433 H         1 UNK         0.0600 
     41 H41         9.5328  -40.2750   -2.2531 H         1 UNK         0.0600 
     42 H42        11.1233  -40.7399   -1.6530 H         1 UNK         0.0600 
     43 H43        10.4223  -41.5692   -3.0417 H         1 UNK         0.0600 
     44 H44        10.2796  -46.5002    0.1096 H         1 UNK         0.0600 
     45 H45        11.2542  -45.7330    1.2936 H         1 UNK         0.0600 
     46 H46        11.4703  -42.9890   -0.7427 H         1 UNK         0.0600 
     47 H47        10.5474  -43.9320   -1.8470 H         1 UNK         0.0600 
     48 H48        10.0990  -42.5616    1.4810 H         1 UNK         0.0600 
     49 H49        10.8715  -43.9592    2.1887 H         1 UNK         0.0600 
     50 H50         8.6215  -42.4807   -1.6233 H         1 UNK         0.0600 
     51 H51         8.9944  -44.6400    0.0247 H         1 UNK         0.0600 
     52 H52         2.8336  -45.9638    5.4388 H         1 UNK         0.3600 
     53 H53         3.2305  -44.6246    6.4434 H         1 UNK         0.3600 
     54 H54         8.8992  -44.2931    3.2826 H         1 UNK         0.3000 
@<TRIPOS>BOND
     1    1    4 ar   
     2    1    7 ar   
     3    1   30 1    
     4    2    5 ar   
     5    2    7 ar   
     6    2   31 1    
     7    3    6 ar   
     8    3    9 ar   
     9    3   32 1    
    10    4   10 ar   
    11    4   33 1    
    12    5   10 ar   
    13    5   34 1    
    14    6   11 ar   
    15    6   35 1    
    16    7   13 1    
    17    8    9 ar   
    18    8   12 ar   
    19    8   14 1    
    20    9   18 1    
    21   10   23 1    
    22   11   12 ar   
    23   11   28 1    
    24   12   29 1    
    25   13   24 am   BACKBONE|DICT|INTERRES
    26   13   26 2    
    27   14   25 1    
    28   14   27 2    
    29   15   28 1    
    30   15   29 1    
    31   15   36 1    
    32   15   37 1    
    33   16   21 1    
    34   16   38 1    
    35   16   39 1    
    36   16   40 1    
    37   17   21 1    
    38   17   41 1    
    39   17   42 1    
    40   17   43 1    
    41   18   22 1    
    42   18   44 1    
    43   18   45 1    
    44   19   21 1    
    45   19   22 1    
    46   19   46 1    
    47   19   47 1    
    48   20   22 1    
    49   20   24 1    
    50   20   48 1    
    51   20   49 1    
    52   21   50 1    
    53   22   51 1    
    54   23   52 1    
    55   23   53 1    
    56   24   54 1    
@<TRIPOS>SUBSTRUCTURE
     1 UNK         1 GROUP             0       ****    0 ROOT    
