@<TRIPOS>MOLECULE
GL5243-84_0
56   59    1
SMALL
USER_CHARGES


@<TRIPOS>ATOM
      1 C1          0.6089  -22.9737   -5.1278 C.ar      1 UNK        -0.1150 
      2 C2          1.9826  -22.6596   -5.2264 C.ar      1 UNK        -0.1150 
      3 C3         -0.0012  -23.1402   -3.8672 C.ar      1 UNK        -0.1150 
      4 C4          2.7701  -22.5469   -4.0614 C.ar      1 UNK        -0.1150 
      5 C5          6.1468  -21.6608   -2.3742 C.ar      1 UNK        -0.1150 
      6 C6          7.4206  -22.1744   -2.6920 C.ar      1 UNK        -0.1150 
      7 C7          5.9067  -23.2472   -0.5078 C.ar      1 UNK        -0.1150 
      8 C8          0.8010  -23.0283   -2.7199 C.ar      1 UNK        -0.1150 
      9 C9          2.1644  -22.7618   -2.8125 C.ar      1 UNK        -0.1150 
     10 C10         5.3539  -22.2266   -1.3480 C.ar      1 UNK        -0.1150 
     11 C11         7.8655  -23.2894   -1.9722 C.ar      1 UNK         0.0850 
     12 C12         7.1359  -23.8106   -0.9241 C.ar      1 UNK         0.0850 
     13 C13         5.3185  -23.6553    0.8230 C.2       1 UNK         0.7150 
     14 C14         1.0996  -20.4922    0.2074 C.2       1 UNK         0.5000 
     15 C15         0.3429  -23.1674   -1.2951 C.3       1 UNK        -0.0050 
     16 C16         8.9732  -25.0214   -1.1879 C.3       1 UNK         0.2000 
     17 C17         2.8332  -22.7866   -1.4593 C.3       1 UNK         0.0550 
     18 C18         1.6257  -22.8731   -0.4706 C.3       1 UNK         0.1400 
     19 C19         3.9318  -21.6986   -1.1994 C.3       1 UNK        -0.0050 
     20 C20         1.8838  -19.3573    0.8778 C.3       1 UNK        -0.1200 
     21 C21         1.6585  -17.9621    0.2644 C.3       1 UNK        -0.1200 
     22 C22         2.0215  -17.8018   -1.2217 C.3       1 UNK        -0.1200 
     23 C23         3.4975  -17.5279   -1.5781 C.3       1 UNK         0.1900 
     24 N24         1.5920  -21.7211    0.4286 N.am      1 UNK        -0.5000 
     25 N25         3.9383  -16.1749   -1.1708 N.4       1 UNK        -0.3000 
     26 O26         4.1416  -23.3726    1.1334 O.co2     1 UNK        -0.8000 
     27 O27         6.0862  -24.1801    1.6553 O.co2     1 UNK        -0.8000 
     28 O28         0.1336  -20.2508   -0.5134 O.2       1 UNK        -0.5000 
     29 O29         9.0164  -23.9917   -2.1364 O.3       1 UNK        -0.2850 
     30 O30         7.8173  -24.8726   -0.4095 O.3       1 UNK        -0.2850 
     31 H31         0.0041  -23.0388   -6.0187 H         1 UNK         0.1150 
     32 H32         2.4276  -22.5014   -6.1969 H         1 UNK         0.1150 
     33 H33        -1.0592  -23.3412   -3.7906 H         1 UNK         0.1150 
     34 H34         3.8198  -22.3132   -4.1272 H         1 UNK         0.1150 
     35 H35         5.7562  -20.8474   -2.9687 H         1 UNK         0.1150 
     36 H36         8.0075  -21.7738   -3.5013 H         1 UNK         0.1150 
     37 H37        -0.5078  -22.5248   -1.0769 H         1 UNK         0.0600 
     38 H38         0.0185  -24.1963   -1.1357 H         1 UNK         0.0600 
     39 H39         8.9486  -25.9861   -1.6964 H         1 UNK         0.1000 
     40 H40         9.8553  -24.9766   -0.5496 H         1 UNK         0.1000 
     41 H41         3.3155  -23.7649   -1.4182 H         1 UNK         0.0600 
     42 H42         1.7866  -23.7284    0.1868 H         1 UNK         0.0600 
     43 H43         3.7555  -20.8298   -1.8342 H         1 UNK         0.0600 
     44 H44         3.9209  -21.3055   -0.1882 H         1 UNK         0.0600 
     45 H45         1.6193  -19.3341    1.9352 H         1 UNK         0.0600 
     46 H46         2.9486  -19.5845    0.8285 H         1 UNK         0.0600 
     47 H47         0.6061  -17.7053    0.3961 H         1 UNK         0.0600 
     48 H48         2.2077  -17.2114    0.8264 H         1 UNK         0.0600 
     49 H49         1.6765  -18.6562   -1.8020 H         1 UNK         0.0600 
     50 H50         1.4213  -16.9735   -1.5721 H         1 UNK         0.0600 
     51 H51         4.1419  -18.3059   -1.1724 H         1 UNK         0.0600 
     52 H52         3.6047  -17.5828   -2.6629 H         1 UNK         0.0600 
     53 H53         2.3758  -21.7563    1.0661 H         1 UNK         0.3000 
     54 H54         3.9554  -16.0954   -0.1631 H         1 UNK         0.3300 
     55 H55         4.8579  -15.9297   -1.5314 H         1 UNK         0.3300 
     56 H56         3.2511  -15.5183   -1.5418 H         1 UNK         0.3300 
@<TRIPOS>BOND
     1    1    2 ar   
     2    1    3 ar   
     3    1   31 1    
     4    2    4 ar   
     5    2   32 1    
     6    3    8 ar   
     7    3   33 1    
     8    4    9 ar   
     9    4   34 1    
    10    5    6 ar   
    11    5   10 ar   
    12    5   35 1    
    13    6   11 ar   
    14    6   36 1    
    15    7   10 ar   
    16    7   12 ar   
    17    7   13 1    
    18    8    9 ar   
    19    8   15 1    
    20    9   17 1    
    21   10   19 1    
    22   11   12 ar   
    23   11   29 1    
    24   12   30 1    
    25   13   26 1    
    26   13   27 2    
    27   14   20 1    
    28   14   24 am   BACKBONE|DICT|INTERRES
    29   14   28 2    
    30   15   18 1    
    31   15   37 1    
    32   15   38 1    
    33   16   29 1    
    34   16   30 1    
    35   16   39 1    
    36   16   40 1    
    37   17   18 1    
    38   17   19 1    
    39   17   41 1    
    40   18   24 1    
    41   18   42 1    
    42   19   43 1    
    43   19   44 1    
    44   20   21 1    
    45   20   45 1    
    46   20   46 1    
    47   21   22 1    
    48   21   47 1    
    49   21   48 1    
    50   22   23 1    
    51   22   49 1    
    52   22   50 1    
    53   23   25 1    
    54   23   51 1    
    55   23   52 1    
    56   24   53 1    
    57   25   54 1    
    58   25   55 1    
    59   25   56 1    
@<TRIPOS>SUBSTRUCTURE
     1 UNK         1 GROUP             0       ****    0 ROOT    
