@<TRIPOS>MOLECULE
GL5243-104_0
51   53    1
SMALL
USER_CHARGES


@<TRIPOS>ATOM
      1 C1         11.6320  -44.9991   -1.8702 C.ar      1 UNK        -0.1150 
      2 C2         12.5525  -45.0740   -2.9320 C.ar      1 UNK        -0.1150 
      3 C3          6.7787  -48.4868    2.4266 C.ar      1 UNK        -0.4470 
      4 C4          8.8948  -47.8916    3.4447 C.ar      1 UNK        -0.4470 
      5 C5          6.7674  -49.6282    3.2492 C.ar      1 UNK         0.4730 
      6 C6          8.7859  -49.0599    4.2210 C.ar      1 UNK         0.4730 
      7 C7          7.8612  -47.5864    2.5304 C.ar      1 UNK         0.1770 
      8 C8         13.3291  -45.7896   -0.2614 C.ar      1 UNK        -0.1150 
      9 C9         12.0064  -45.2962   -0.5280 C.ar      1 UNK        -0.1150 
     10 C10        13.8574  -45.4738   -2.6327 C.ar      1 UNK         0.0850 
     11 C11        14.2301  -45.8284   -1.3533 C.ar      1 UNK         0.0850 
     12 C12         7.9282  -46.3694    1.6562 C.2       1 UNK         0.6150 
     13 C13        13.7910  -46.2648    1.1002 C.2       1 UNK         0.7150 
     14 C14        15.9881  -46.0121   -2.6911 C.3       1 UNK         0.2000 
     15 C15         8.4546  -40.8672    0.1490 C.3       1 UNK        -0.1800 
     16 C16         9.8301  -41.0745   -1.9720 C.3       1 UNK        -0.1800 
     17 C17        10.9915  -45.0743    0.6044 C.3       1 UNK        -0.0050 
     18 C18        10.2382  -42.6946   -0.0700 C.3       1 UNK        -0.1200 
     19 C19         8.8226  -44.0425    1.5510 C.3       1 UNK         0.0800 
     20 C20         9.1812  -41.8377   -0.8036 C.3       1 UNK        -0.0600 
     21 C21         9.7857  -44.1228    0.3381 C.3       1 UNK        -0.0600 
     22 N22         7.7450  -49.9151    4.1314 N.ar      1 UNK        -0.6780 
     23 N23         8.5630  -45.3214    2.1989 N.am      1 UNK        -0.5000 
     24 O24        12.9641  -46.6731    1.9465 O.co2     1 UNK        -0.8000 
     25 O25         7.4159  -46.3526    0.5362 O.2       1 UNK        -0.5000 
     26 O26        15.0158  -46.2740    1.3533 O.co2     1 UNK        -0.8000 
     27 O27        14.9061  -45.6089   -3.4835 O.3       1 UNK        -0.2850 
     28 O28        15.5368  -46.2126   -1.3793 O.3       1 UNK        -0.2850 
     29 H29        10.6320  -44.6734   -2.1087 H         1 UNK         0.1150 
     30 H30        12.2643  -44.8305   -3.9443 H         1 UNK         0.1150 
     31 H31         5.9713  -48.3091    1.7312 H         1 UNK         0.1550 
     32 H32         9.7642  -47.2557    3.5553 H         1 UNK         0.1550 
     33 H33         5.9482  -50.3327    3.1950 H         1 UNK         0.0120 
     34 H34         9.5605  -49.3202    4.9269 H         1 UNK         0.0120 
     35 H35        16.4181  -46.9340   -3.0817 H         1 UNK         0.1000 
     36 H36        16.7477  -45.2299   -2.6954 H         1 UNK         0.1000 
     37 H37         7.8163  -40.1747   -0.4010 H         1 UNK         0.0600 
     38 H38         7.8170  -41.3942    0.8579 H         1 UNK         0.0600 
     39 H39         9.1550  -40.2719    0.7319 H         1 UNK         0.0600 
     40 H40         9.1466  -40.3568   -2.4231 H         1 UNK         0.0600 
     41 H41        10.7172  -40.5314   -1.6546 H         1 UNK         0.0600 
     42 H42        10.1491  -41.7652   -2.7538 H         1 UNK         0.0600 
     43 H43        10.6374  -46.0697    0.8703 H         1 UNK         0.0600 
     44 H44        11.5092  -44.6863    1.4809 H         1 UNK         0.0600 
     45 H45        10.6144  -42.1619    0.8029 H         1 UNK         0.0600 
     46 H46        11.1114  -42.7639   -0.7145 H         1 UNK         0.0600 
     47 H47         9.2414  -43.3858    2.3150 H         1 UNK         0.0600 
     48 H48         7.8684  -43.6073    1.2543 H         1 UNK         0.0600 
     49 H49         8.4299  -42.4945   -1.2450 H         1 UNK         0.0600 
     50 H50         9.2160  -44.5557   -0.4849 H         1 UNK         0.0600 
     51 H51         8.9324  -45.4342    3.1360 H         1 UNK         0.3000 
@<TRIPOS>BOND
     1    1    2 ar   
     2    1    9 ar   
     3    1   29 1    
     4    2   10 ar   
     5    2   30 1    
     6    3    5 ar   
     7    3    7 ar   
     8    3   31 1    
     9    4    6 ar   
    10    4    7 ar   
    11    4   32 1    
    12    5   22 ar   
    13    5   33 1    
    14    6   22 ar   
    15    6   34 1    
    16    7   12 1    
    17    8    9 ar   
    18    8   11 ar   
    19    8   13 1    
    20    9   17 1    
    21   10   11 ar   
    22   10   27 1    
    23   11   28 1    
    24   12   23 am   BACKBONE|DICT|INTERRES
    25   12   25 2    
    26   13   24 1    
    27   13   26 2    
    28   14   27 1    
    29   14   28 1    
    30   14   35 1    
    31   14   36 1    
    32   15   20 1    
    33   15   37 1    
    34   15   38 1    
    35   15   39 1    
    36   16   20 1    
    37   16   40 1    
    38   16   41 1    
    39   16   42 1    
    40   17   21 1    
    41   17   43 1    
    42   17   44 1    
    43   18   20 1    
    44   18   21 1    
    45   18   45 1    
    46   18   46 1    
    47   19   21 1    
    48   19   23 1    
    49   19   47 1    
    50   19   48 1    
    51   20   49 1    
    52   21   50 1    
    53   23   51 1    
@<TRIPOS>SUBSTRUCTURE
     1 UNK         1 GROUP             0       ****    0 ROOT    
