@<TRIPOS>MOLECULE
GL5243-102_0
53   55    1
SMALL
USER_CHARGES


@<TRIPOS>ATOM
      1 C1          6.7961  -21.8205   -2.3720 C.ar      1 UNK        -0.1150 
      2 C2          7.9862  -22.5161   -2.6796 C.ar      1 UNK        -0.1150 
      3 C3          3.4016  -16.3560   -0.3721 C.ar      1 UNK        -0.1741 
      4 C4          3.9974  -17.1098   -2.3719 C.ar      1 UNK         0.1001 
      5 C5          6.2656  -23.4452   -0.5985 C.ar      1 UNK        -0.1150 
      6 C6          5.9290  -22.2702   -1.3402 C.ar      1 UNK        -0.1150 
      7 C7          8.2604  -23.6943   -1.9720 C.ar      1 UNK         0.0850 
      8 C8          7.4198  -24.1561   -0.9840 C.ar      1 UNK         0.0850 
      9 C9          2.6198  -17.4608   -0.6464 C.ar      1 UNK         0.0080 
     10 C10         5.5260  -23.8858    0.6292 C.2       1 UNK         0.7150 
     11 C11         1.7355  -19.6231    0.3904 C.2       1 UNK         0.5000 
     12 C12         9.1180  -25.5599   -1.1713 C.3       1 UNK         0.2000 
     13 C13         0.6945  -21.6740   -3.7346 C.3       1 UNK        -0.1800 
     14 C14         2.4509  -22.1734   -5.4425 C.3       1 UNK        -0.1800 
     15 C15         4.6842  -21.4403   -1.0347 C.3       1 UNK        -0.0050 
     16 C16         1.5234  -18.1204    0.1513 C.3       1 UNK         0.1096 
     17 C17         3.1932  -21.5376   -3.1020 C.3       1 UNK        -0.1200 
     18 C18         2.1875  -21.8135   -0.7058 C.3       1 UNK         0.0800 
     19 C19         2.1073  -22.2495   -3.9447 C.3       1 UNK        -0.0600 
     20 C20         3.3912  -22.0395   -1.6483 C.3       1 UNK        -0.0600 
     21 N21         3.0198  -17.8790   -1.8960 N.pl3     1 UNK        -0.2324 
     22 N22         4.2198  -16.1734   -1.4513 N.ar      1 UNK        -0.1863 
     23 N23         1.7798  -20.4130   -0.6929 N.am      1 UNK        -0.5000 
     24 O24         6.2184  -24.1734    1.6280 O.co2     1 UNK        -0.8000 
     25 O25         4.2776  -23.8938    0.6518 O.co2     1 UNK        -0.8000 
     26 O26         1.8198  -20.0646    1.5366 O.2       1 UNK        -0.5000 
     27 O27         9.3275  -24.5242   -2.0923 O.3       1 UNK        -0.2850 
     28 O28         7.9384  -25.3016   -0.4619 O.3       1 UNK        -0.2850 
     29 H29         6.5596  -20.9202   -2.9200 H         1 UNK         0.1150 
     30 H30         8.6584  -22.1734   -3.4509 H         1 UNK         0.1150 
     31 H31         3.4408  -15.7120    0.4956 H         1 UNK         0.2580 
     32 H32         4.4751  -17.2058   -3.3290 H         1 UNK         0.2377 
     33 H33         9.0220  -26.5094   -1.6999 H         1 UNK         0.1000 
     34 H34         9.9581  -25.6156   -0.4786 H         1 UNK         0.1000 
     35 H35        -0.0243  -22.1734   -4.3847 H         1 UNK         0.0600 
     36 H36         0.3184  -21.7951   -2.7243 H         1 UNK         0.0600 
     37 H37         0.6604  -20.6099   -3.9720 H         1 UNK         0.0600 
     38 H38         1.7111  -22.7028   -6.0436 H         1 UNK         0.0600 
     39 H39         2.4779  -21.1400   -5.7912 H         1 UNK         0.0600 
     40 H40         3.4199  -22.6225   -5.6545 H         1 UNK         0.0600 
     41 H41         4.5962  -21.3508    0.0482 H         1 UNK         0.0600 
     42 H42         4.8256  -20.4141   -1.3761 H         1 UNK         0.0600 
     43 H43         0.5824  -17.9960   -0.3720 H         1 UNK         0.0600 
     44 H44         1.4199  -17.6099    1.1100 H         1 UNK         0.0600 
     45 H45         3.0423  -20.4593   -3.1323 H         1 UNK         0.0600 
     46 H46         4.1501  -21.6979   -3.5968 H         1 UNK         0.0600 
     47 H47         1.3485  -22.4408   -0.9971 H         1 UNK         0.0600 
     48 H48         2.4390  -22.1561    0.2983 H         1 UNK         0.0600 
     49 H49         2.0953  -23.3055   -3.6711 H         1 UNK         0.0600 
     50 H50         3.5213  -23.1216   -1.6943 H         1 UNK         0.0600 
     51 H51         4.9459  -15.4513   -1.5320 H         1 UNK         0.3797 
     52 H52         1.5681  -20.0070   -1.5903 H         1 UNK         0.3000 
     53 H53         2.5699  -18.5954   -2.4500 H         1 UNK         0.3797 
@<TRIPOS>BOND
     1    1    2 ar   
     2    1    6 ar   
     3    1   29 1    
     4    2    7 ar   
     5    2   30 1    
     6    3    9 ar   
     7    3   22 ar   
     8    3   31 1    
     9    4   21 ar   
    10    4   22 ar   
    11    4   32 1    
    12    5    6 ar   
    13    5    8 ar   
    14    5   10 1    
    15    6   15 1    
    16    7    8 ar   
    17    7   27 1    
    18    8   28 1    
    19    9   16 1    
    20    9   21 ar   
    21   10   24 1    
    22   10   25 2    
    23   11   16 1    
    24   11   23 am   BACKBONE|DICT|INTERRES
    25   11   26 2    
    26   12   27 1    
    27   12   28 1    
    28   12   33 1    
    29   12   34 1    
    30   13   19 1    
    31   13   35 1    
    32   13   36 1    
    33   13   37 1    
    34   14   19 1    
    35   14   38 1    
    36   14   39 1    
    37   14   40 1    
    38   15   20 1    
    39   15   41 1    
    40   15   42 1    
    41   16   43 1    
    42   16   44 1    
    43   17   19 1    
    44   17   20 1    
    45   17   45 1    
    46   17   46 1    
    47   18   20 1    
    48   18   23 1    
    49   18   47 1    
    50   18   48 1    
    51   19   49 1    
    52   20   50 1    
    53   21   53 1    
    54   22   51 1    
    55   23   52 1    
@<TRIPOS>SUBSTRUCTURE
     1 UNK         1 GROUP             0       ****    0 ROOT    
