@<TRIPOS>MOLECULE
pC2-A03_0
30   32    1
SMALL
USER_CHARGES


@<TRIPOS>ATOM
      1 C1          3.7301  -22.0721   -0.3022 C.ar      1 UNK        -0.1150 
      2 C2          5.1469  -20.7531   -1.7829 C.ar      1 UNK        -0.1150 
      3 C3          2.7418  -21.0763   -0.3563 C.ar      1 UNK        -0.1150 
      4 C4          4.1525  -19.7563   -1.8430 C.ar      1 UNK        -0.1150 
      5 C5          4.9551  -21.9156   -0.9940 C.ar      1 UNK         0.0850 
      6 C6          2.9588  -19.9166   -1.1178 C.ar      1 UNK         0.2000 
      7 C7          6.9795  -23.0958   -1.8360 C.ar      1 UNK         0.0075 
      8 C8          7.7369  -24.1027   -1.4153 C.ar      1 UNK         0.1225 
      9 C9          6.1894  -23.7623    0.1321 C.ar      1 UNK         0.8613 
     10 C10         9.0179  -24.6916   -1.9719 C.3       1 UNK        -0.1200 
     11 C11         9.8147  -25.4643   -0.9072 C.3       1 UNK        -0.1200 
     12 C12         8.8822  -26.3851   -0.1229 C.3       1 UNK        -0.1200 
     13 C13         7.8421  -25.5489    0.6307 C.3       1 UNK        -0.0703 
     14 N14         5.9689  -22.9150   -0.9011 N.ar      1 UNK        -0.3300 
     15 N15         7.2085  -24.5583   -0.2227 N.ar      1 UNK        -0.2947 
     16 O16         5.6246  -23.7830    1.2279 O.2       1 UNK        -0.6163 
     17 Br17        1.6241  -18.5740   -1.1485 Br        1 UNK        -0.2000 
     18 H18         3.5250  -22.9574    0.2815 H         1 UNK         0.1150 
     19 H19         6.0635  -20.5844   -2.3243 H         1 UNK         0.1150 
     20 H20         1.8154  -21.1987    0.1849 H         1 UNK         0.1150 
     21 H21         4.3099  -18.8613   -2.4305 H         1 UNK         0.1150 
     22 H22         7.0672  -22.4656   -2.7084 H         1 UNK         0.1150 
     23 H23         8.7249  -25.3644   -2.7710 H         1 UNK         0.0600 
     24 H24         9.6321  -23.9059   -2.4104 H         1 UNK         0.0600 
     25 H25        10.6161  -26.0468   -1.3618 H         1 UNK         0.0600 
     26 H26        10.2943  -24.7651   -0.2250 H         1 UNK         0.0600 
     27 H27         8.3856  -27.0762   -0.8060 H         1 UNK         0.0600 
     28 H28         9.4402  -27.0010    0.5810 H         1 UNK         0.0600 
     29 H29         7.0783  -26.1735    1.0843 H         1 UNK         0.0600 
     30 H30         8.3199  -25.0157    1.4466 H         1 UNK         0.0600 
@<TRIPOS>BOND
     1    1    3 ar   
     2    1    5 ar   
     3    1   18 1    
     4    2    4 ar   
     5    2    5 ar   
     6    2   19 1    
     7    3    6 ar   
     8    3   20 1    
     9    4    6 ar   
    10    4   21 1    
    11    5   14 1    
    12    6   17 1    
    13    7    8 ar   
    14    7   14 ar   
    15    7   22 1    
    16    8   10 1    
    17    8   15 ar   
    18    9   14 ar   
    19    9   15 ar   
    20    9   16 2    
    21   10   11 1    
    22   10   23 1    
    23   10   24 1    
    24   11   12 1    
    25   11   25 1    
    26   11   26 1    
    27   12   13 1    
    28   12   27 1    
    29   12   28 1    
    30   13   15 1    
    31   13   29 1    
    32   13   30 1    
@<TRIPOS>SUBSTRUCTURE
     1 UNK         1 GROUP             0       ****    0 ROOT    
