@<TRIPOS>MOLECULE
SAMPL4_001
   26    25     0     0     0
SMALL
NO_CHARGES

@<TRIPOS>ATOM
      1 C1          0.2788   -0.8744    1.4858 C.3       1 <0>         0.0000
      2 C2          1.2292   -1.5518   -3.1284 C.3       1 <0>         0.0000
      3 C3          1.1627   -1.7454    0.5958 C.3       1 <0>         0.0000
      4 C4          0.1594   -0.9168   -2.2412 C.3       1 <0>         0.0000
      5 C5          0.3824   -2.6675   -0.3626 C.3       1 <0>         0.0000
      6 C6         -0.5633   -1.9135   -1.3127 C.3       1 <0>         0.0000
      7 O1          1.1140   -0.0980    2.3409 O.3       1 <0>         0.0000
      8 O2          1.8046   -0.5581   -3.9734 O.3       1 <0>         0.0000
      9 O3          1.9505   -2.5692    1.4649 O.3       1 <0>         0.0000
     10 O4         -0.8140   -0.3299   -3.1142 O.3       1 <0>         0.0000
     11 O5         -0.3825   -3.6075    0.3914 O.3       1 <0>         0.0000
     12 O6         -1.2834   -2.8643   -2.0963 O.3       1 <0>         0.0000
     13 H1         -0.3754   -1.4765    2.1210 H         1 <0>         0.0000
     14 H2         -0.3244   -0.1791    0.8931 H         1 <0>         0.0000
     15 H3          0.8016   -2.3181   -3.7826 H         1 <0>         0.0000
     16 H4          2.0391   -1.9979   -2.5457 H         1 <0>         0.0000
     17 H5          1.8704   -1.1170    0.0435 H         1 <0>         0.0000
     18 H6          0.5915   -0.0916   -1.6643 H         1 <0>         0.0000
     19 H7          1.1123   -3.2402   -0.9464 H         1 <0>         0.0000
     20 H8         -1.3019   -1.3527   -0.7283 H         1 <0>         0.0000
     21 H9          0.5229    0.4405    2.8894 H         1 <0>         0.0000
     22 H10         2.4729   -1.0082   -4.5129 H         1 <0>         0.0000
     23 H11         2.4677   -1.9625    2.0130 H         1 <0>         0.0000
     24 H12        -1.4838    0.0676   -2.5404 H         1 <0>         0.0000
     25 H13         0.2514   -4.1157    0.9198 H         1 <0>         0.0000
     26 H14        -1.9207   -2.3588   -2.6234 H         1 <0>         0.0000
@<TRIPOS>BOND
     1    1    3 1
     2    1    7 1
     3    2    4 1
     4    2    8 1
     5    3    5 1
     6    3    9 1
     7    4    6 1
     8    4   10 1
     9    5    6 1
    10    5   11 1
    11    6   12 1
    12    1   13 1
    13    1   14 1
    14    2   15 1
    15    2   16 1
    16    3   17 1
    17    4   18 1
    18    5   19 1
    19    6   20 1
    20    7   21 1
    21    8   22 1
    22    9   23 1
    23   10   24 1
    24   11   25 1
    25   12   26 1
@<TRIPOS>MOLECULE
SAMPL4_002
   34    33     0     0     0
SMALL
NO_CHARGES

@<TRIPOS>ATOM
      1 C1         -1.4382   -3.4939   -1.9890 C.2       1 <0>         0.0000
      2 C2         -0.2939   -2.8048   -1.9009 C.2       1 <0>         0.0000
      3 C3          1.3296   -1.1846    1.8656 C.2       1 <0>         0.0000
      4 C4          0.7346   -1.7876    2.9123 C.2       1 <0>         0.0000
      5 C5          1.0877   -1.2556   -3.7882 C.2       1 <0>         0.0000
      6 C6          0.8442   -1.3386    4.3420 C.3       1 <0>         0.0000
      7 C7         -0.1069   -3.0187    2.7074 C.3       1 <0>         0.0000
      8 C8          2.3969   -0.8321   -4.3822 C.3       1 <0>         0.0000
      9 C9         -1.2395   -0.4707   -2.4126 C.3       1 <0>         0.0000
     10 C10         1.2592   -1.5834    0.4173 C.3       1 <0>         0.0000
     11 C11         0.0763   -0.9050   -0.2820 C.3       1 <0>         0.0000
     12 C12        -0.1287   -1.3054   -1.7630 C.3       1 <0>         0.0000
     13 O1          0.1880   -1.7890   -4.4230 O.2       1 <0>         0.0000
     14 O2          1.0774   -0.9513   -2.4625 O.3       1 <0>         0.0000
     15 H1         -1.4633   -4.5724   -2.0860 H         1 <0>         0.0000
     16 H2         -2.3897   -2.9730   -1.9625 H         1 <0>         0.0000
     17 H3          0.6298   -3.3815   -1.9332 H         1 <0>         0.0000
     18 H4          1.9535   -0.3132    2.0603 H         1 <0>         0.0000
     19 H5          0.0446   -0.6269    4.5746 H         1 <0>         0.0000
     20 H6          1.8058   -0.8422    4.5081 H         1 <0>         0.0000
     21 H7          0.7569   -2.1553    5.0622 H         1 <0>         0.0000
     22 H8          0.5127   -3.9179    2.7885 H         1 <0>         0.0000
     23 H9         -0.9114   -3.1025    3.4457 H         1 <0>         0.0000
     24 H10        -0.5683   -3.0024    1.7145 H         1 <0>         0.0000
     25 H11         2.3246    0.1966   -4.7439 H         1 <0>         0.0000
     26 H12         2.6712   -1.5084   -5.1957 H         1 <0>         0.0000
     27 H13         3.1750   -0.8779   -3.6147 H         1 <0>         0.0000
     28 H14        -1.0503    0.6001   -2.2711 H         1 <0>         0.0000
     29 H15        -1.3370   -0.6602   -3.4859 H         1 <0>         0.0000
     30 H16        -2.2085   -0.6705   -1.9390 H         1 <0>         0.0000
     31 H17         2.2011   -1.2796   -0.0540 H         1 <0>         0.0000
     32 H18         1.2069   -2.6701    0.3069 H         1 <0>         0.0000
     33 H19         0.1920    0.1868   -0.2221 H         1 <0>         0.0000
     34 H20        -0.8470   -1.1166    0.2772 H         1 <0>         0.0000
@<TRIPOS>BOND
     1    1    2 2
     2    2   12 1
     3    3    4 2
     4    3   10 1
     5    4    6 1
     6    4    7 1
     7    5    8 1
     8    5   13 2
     9    5   14 1
    10    9   12 1
    11   10   11 1
    12   11   12 1
    13   12   14 1
    14    1   15 1
    15    1   16 1
    16    2   17 1
    17    3   18 1
    18    6   19 1
    19    6   20 1
    20    6   21 1
    21    7   22 1
    22    7   23 1
    23    7   24 1
    24    8   25 1
    25    8   26 1
    26    8   27 1
    27    9   28 1
    28    9   29 1
    29    9   30 1
    30   10   31 1
    31   10   32 1
    32   11   33 1
    33   11   34 1
@<TRIPOS>MOLECULE
SAMPL4_003
   29    28     0     0     0
SMALL
NO_CHARGES

@<TRIPOS>ATOM
      1 C1          0.2859   -2.1834   -2.1028 C.2       1 <0>         0.0000
      2 C2          1.8233   -1.8176    1.2678 C.2       1 <0>         0.0000
      3 C3          0.3852   -1.0693   -2.8522 C.2       1 <0>         0.0000
      4 C4          0.5262   -1.7583    0.9080 C.2       1 <0>         0.0000
      5 C5          1.5511   -0.8831   -3.7866 C.3       1 <0>         0.0000
      6 C6         -0.5888    0.0743   -2.8429 C.3       1 <0>         0.0000
      7 C7         -0.2725   -0.5074    1.1718 C.3       1 <0>         0.0000
      8 C8         -0.7968   -2.5521   -1.1265 C.3       1 <0>         0.0000
      9 C9          2.7787   -2.9532    1.0818 C.3       1 <0>         0.0000
     10 C10        -0.2460   -2.8911    0.2648 C.3       1 <0>         0.0000
     11 O1          3.2800   -3.3368    2.3552 O.3       1 <0>         0.0000
     12 H1          1.0704   -2.9336   -2.1973 H         1 <0>         0.0000
     13 H2          2.2643   -0.9378    1.7351 H         1 <0>         0.0000
     14 H3          1.3150   -1.2948   -4.7734 H         1 <0>         0.0000
     15 H4          1.8144    0.1712   -3.9217 H         1 <0>         0.0000
     16 H5          2.4350   -1.3983   -3.3966 H         1 <0>         0.0000
     17 H6         -0.2913    0.8147   -2.0931 H         1 <0>         0.0000
     18 H7         -0.6686    0.5902   -3.8014 H         1 <0>         0.0000
     19 H8         -1.5906   -0.2887   -2.5894 H         1 <0>         0.0000
     20 H9         -0.2012    0.1747    0.3182 H         1 <0>         0.0000
     21 H10         0.1010    0.0088    2.0612 H         1 <0>         0.0000
     22 H11        -1.3346   -0.7181    1.3366 H         1 <0>         0.0000
     23 H12        -1.5731   -1.7851   -1.0564 H         1 <0>         0.0000
     24 H13        -1.3039   -3.4414   -1.5227 H         1 <0>         0.0000
     25 H14         3.6198   -2.6217    0.4643 H         1 <0>         0.0000
     26 H15         2.3340   -3.8301    0.6083 H         1 <0>         0.0000
     27 H16        -1.0885   -3.1489    0.9205 H         1 <0>         0.0000
     28 H17         0.3541   -3.8064    0.2138 H         1 <0>         0.0000
     29 H18         3.8951   -4.0727    2.2040 H         1 <0>         0.0000
@<TRIPOS>BOND
     1    1    3 2
     2    1    8 1
     3    2    4 2
     4    2    9 1
     5    3    5 1
     6    3    6 1
     7    4    7 1
     8    4   10 1
     9    8   10 1
    10    9   11 1
    11    1   12 1
    12    2   13 1
    13    5   14 1
    14    5   15 1
    15    5   16 1
    16    6   17 1
    17    6   18 1
    18    6   19 1
    19    7   20 1
    20    7   21 1
    21    7   22 1
    22    8   23 1
    23    8   24 1
    24    9   25 1
    25    9   26 1
    26   10   27 1
    27   10   28 1
    28   11   29 1
@<TRIPOS>MOLECULE
SAMPL4_004
   29    28     0     0     0
SMALL
NO_CHARGES

@<TRIPOS>ATOM
      1 C1          0.5199   -2.0705   -2.4206 C.2       1 <0>         0.0000
      2 C2          1.1382   -1.7953    1.2400 C.2       1 <0>         0.0000
      3 C3          0.3615   -0.8757   -3.0207 C.2       1 <0>         0.0000
      4 C4          0.0014   -2.1018    0.5849 C.2       1 <0>         0.0000
      5 C5          1.5438   -0.1664   -3.6258 C.3       1 <0>         0.0000
      6 C6         -0.9366   -0.1299   -3.1437 C.3       1 <0>         0.0000
      7 C7         -1.2243   -1.2419    0.7598 C.3       1 <0>         0.0000
      8 C8         -0.5297   -2.9296   -1.7714 C.3       1 <0>         0.0000
      9 C9          1.3818   -0.6547    2.1762 C.3       1 <0>         0.0000
     10 C10        -0.1773   -3.2993   -0.3246 C.3       1 <0>         0.0000
     11 O1          2.4580    0.1242    1.6711 O.3       1 <0>         0.0000
     12 H1          1.5218   -2.4975   -2.3902 H         1 <0>         0.0000
     13 H2          1.9968   -2.4529    1.1079 H         1 <0>         0.0000
     14 H3          1.6666   -0.4607   -4.6733 H         1 <0>         0.0000
     15 H4          1.4368    0.9231   -3.5981 H         1 <0>         0.0000
     16 H5          2.4587   -0.4237   -3.0821 H         1 <0>         0.0000
     17 H6         -1.0736    0.5301   -2.2808 H         1 <0>         0.0000
     18 H7         -1.0057    0.4849   -4.0427 H         1 <0>         0.0000
     19 H8         -1.7733   -0.8362   -3.1729 H         1 <0>         0.0000
     20 H9         -1.2346   -0.4407    0.0134 H         1 <0>         0.0000
     21 H10        -1.2395   -0.7891    1.7557 H         1 <0>         0.0000
     22 H11        -2.1527   -1.8112    0.6440 H         1 <0>         0.0000
     23 H12        -1.5254   -2.4802   -1.8219 H         1 <0>         0.0000
     24 H13        -0.6005   -3.8557   -2.3564 H         1 <0>         0.0000
     25 H14         1.6687   -1.0461    3.1576 H         1 <0>         0.0000
     26 H15         0.5174   -0.0020    2.3098 H         1 <0>         0.0000
     27 H16        -0.9840   -3.9234    0.0827 H         1 <0>         0.0000
     28 H17         0.7062   -3.9473   -0.3115 H         1 <0>         0.0000
     29 H18         2.5931    0.8543    2.2966 H         1 <0>         0.0000
@<TRIPOS>BOND
     1    1    3 2
     2    1    8 1
     3    2    4 2
     4    2    9 1
     5    3    5 1
     6    3    6 1
     7    4    7 1
     8    4   10 1
     9    8   10 1
    10    9   11 1
    11    1   12 1
    12    2   13 1
    13    5   14 1
    14    5   15 1
    15    5   16 1
    16    6   17 1
    17    6   18 1
    18    6   19 1
    19    7   20 1
    20    7   21 1
    21    7   22 1
    22    8   23 1
    23    8   24 1
    24    9   25 1
    25    9   26 1
    26   10   27 1
    27   10   28 1
    28   11   29 1
@<TRIPOS>MOLECULE
SAMPL4_005
   20    20     0     0     0
SMALL
NO_CHARGES

@<TRIPOS>ATOM
      1 C1          1.8851   -1.0363   -0.1124 C.ar      1 <0>         0.0000
      2 C2          0.8066   -0.4630    0.5610 C.ar      1 <0>         0.0000
      3 C3          2.9210   -1.6309    0.6081 C.ar      1 <0>         0.0000
      4 C4          0.7638   -0.4841    1.9551 C.ar      1 <0>         0.0000
      5 C5          2.8783   -1.6520    2.0022 C.ar      1 <0>         0.0000
      6 C6          1.7997   -1.0786    2.6757 C.ar      1 <0>         0.0000
      7 C7          4.9612   -2.7974    1.9302 C.3       1 <0>         0.0000
      8 C8          0.6102   -0.4844    4.6474 C.3       1 <0>         0.0000
      9 O1          3.8966   -2.2346    2.6945 O.3       1 <0>         0.0000
     10 O2          1.7470   -1.0918    4.0368 O.3       1 <0>         0.0000
     11 H1          1.9183   -1.0200   -1.1982 H         1 <0>         0.0000
     12 H2          0.0002   -0.0001    0.0001 H         1 <0>         0.0000
     13 H3          3.7584   -2.0759    0.0774 H         1 <0>         0.0000
     14 H4         -0.0785   -0.0342    2.4734 H         1 <0>         0.0000
     15 H5          5.7059   -3.2287    2.6037 H         1 <0>         0.0000
     16 H6          5.4190   -2.0198    1.3136 H         1 <0>         0.0000
     17 H7          4.5593   -3.5820    1.2848 H         1 <0>         0.0000
     18 H8          0.6933   -0.5639    5.7341 H         1 <0>         0.0000
     19 H9         -0.2994   -0.9833    4.3034 H         1 <0>         0.0000
     20 H10         0.5749    0.5699    4.3631 H         1 <0>         0.0000
@<TRIPOS>BOND
     1    1    2 ar
     2    1    3 ar
     3    2    4 ar
     4    3    5 ar
     5    4    6 ar
     6    5    6 ar
     7    5    9 1
     8    6   10 1
     9    7    9 1
    10    8   10 1
    11    1   11 1
    12    2   12 1
    13    3   13 1
    14    4   14 1
    15    7   15 1
    16    7   16 1
    17    7   17 1
    18    8   18 1
    19    8   19 1
    20    8   20 1
@<TRIPOS>MOLECULE
SAMPL4_006
   26    26     0     0     0
SMALL
NO_CHARGES

@<TRIPOS>ATOM
      1 C1          3.1272   -1.5818    0.4804 C.ar      1 <0>         0.0000
      2 C2          1.8633   -1.0536    0.2176 C.ar      1 <0>         0.0000
      3 C3          2.7047   -1.4124    2.8531 C.ar      1 <0>         0.0000
      4 C4          3.5479   -1.7612    1.7982 C.ar      1 <0>         0.0000
      5 C5          1.0200   -0.7047    1.2725 C.ar      1 <0>         0.0000
      6 C6          1.4407   -0.8841    2.5903 C.ar      1 <0>         0.0000
      7 C7          6.2544   -4.4397    2.4351 C.3       1 <0>         0.0000
      8 C8          1.1318   -0.7612    4.9451 C.3       1 <0>         0.0000
      9 C9          4.8982   -2.3284    2.0793 C.3       1 <0>         0.0000
     10 C10         4.8713   -3.8610    2.1826 C.3       1 <0>         0.0000
     11 O1         -0.2120   -0.1897    1.0024 O.3       1 <0>         0.0000
     12 O2          0.6264   -0.5464    3.6289 O.3       1 <0>         0.0000
     13 H1          3.7767   -1.8523   -0.3477 H         1 <0>         0.0000
     14 H2          1.5421   -0.9161   -0.8112 H         1 <0>         0.0000
     15 H3          3.0300   -1.5518    3.8813 H         1 <0>         0.0000
     16 H4          6.9509   -4.1519    1.6411 H         1 <0>         0.0000
     17 H5          6.6576   -4.0895    3.3907 H         1 <0>         0.0000
     18 H6          6.2081   -5.5328    2.4662 H         1 <0>         0.0000
     19 H7          0.3838   -0.4504    5.6787 H         1 <0>         0.0000
     20 H8          2.0518   -0.1871    5.0814 H         1 <0>         0.0000
     21 H9          1.3458   -1.8247    5.0746 H         1 <0>         0.0000
     22 H10         5.6136   -2.0329    1.2928 H         1 <0>         0.0000
     23 H11         5.3062   -1.9116    3.0160 H         1 <0>         0.0000
     24 H12         4.2003   -4.1676    2.9942 H         1 <0>         0.0000
     25 H13         4.4663   -4.2896    1.2578 H         1 <0>         0.0000
     26 H14        -0.3475   -0.1303    0.0437 H         1 <0>         0.0000
@<TRIPOS>BOND
     1    1    2 ar
     2    1    4 ar
     3    2    5 ar
     4    3    4 ar
     5    3    6 ar
     6    4    9 1
     7    5    6 ar
     8    5   11 1
     9    6   12 1
    10    7   10 1
    11    8   12 1
    12    9   10 1
    13    1   13 1
    14    2   14 1
    15    3   15 1
    16    7   16 1
    17    7   17 1
    18    7   18 1
    19    8   19 1
    20    8   20 1
    21    8   21 1
    22    9   22 1
    23    9   23 1
    24   10   24 1
    25   10   25 1
    26   11   26 1
@<TRIPOS>MOLECULE
SAMPL4_007
   17    17     0     0     0
SMALL
NO_CHARGES

@<TRIPOS>ATOM
      1 C1          1.8474   -0.9917    0.5959 C.ar      1 <0>         0.0000
      2 C2          2.7858   -1.8410    3.0820 C.ar      1 <0>         0.0000
      3 C3          1.0862   -0.7664    1.7428 C.ar      1 <0>         0.0000
      4 C4          1.5553   -1.1910    2.9858 C.ar      1 <0>         0.0000
      5 C5          3.0779   -1.6417    0.6921 C.ar      1 <0>         0.0000
      6 C6          3.5470   -2.0663    1.9351 C.ar      1 <0>         0.0000
      7 C7          1.0499    0.2450    4.8129 C.3       1 <0>         0.0000
      8 O1         -0.1144   -0.1314    1.6364 O.3       1 <0>         0.0000
      9 O2          0.8209   -0.9763    4.1127 O.3       1 <0>         0.0000
     10 Cl1         3.9744   -1.8920   -0.7647 Cl        1 <0>         0.0000
     11 Cl2         5.0627   -2.8772    2.1191 Cl        1 <0>         0.0000
     12 H1          1.4723   -0.6564   -0.3684 H         1 <0>         0.0000
     13 H2          3.1422   -2.1680    4.0564 H         1 <0>         0.0000
     14 H3          0.4006    0.2898    5.6908 H         1 <0>         0.0000
     15 H4          0.8442    1.0898    4.1508 H         1 <0>         0.0000
     16 H5          2.0940    0.2810    5.1326 H         1 <0>         0.0000
     17 H6         -0.2924    0.0958    0.7102 H         1 <0>         0.0000
@<TRIPOS>BOND
     1    1    3 ar
     2    1    5 ar
     3    2    4 ar
     4    2    6 ar
     5    3    4 ar
     6    3    8 1
     7    4    9 1
     8    5    6 ar
     9    5   10 1
    10    6   11 1
    11    7    9 1
    12    1   12 1
    13    2   13 1
    14    7   14 1
    15    7   15 1
    16    7   16 1
    17    8   17 1
@<TRIPOS>MOLECULE
SAMPL4_008
   17    17     0     0     0
SMALL
NO_CHARGES

@<TRIPOS>ATOM
      1 C1          0.8499   -0.5492    2.1201 C.ar      1 <0>         0.0000
      2 C2          0.8275   -0.4897    0.7267 C.ar      1 <0>         0.0000
      3 C3          2.9452   -1.6497    0.6432 C.ar      1 <0>         0.0000
      4 C4          1.9200   -1.1589    2.7751 C.ar      1 <0>         0.0000
      5 C5          2.9676   -1.7091    2.0366 C.ar      1 <0>         0.0000
      6 C6          1.8751   -1.0400   -0.0117 C.ar      1 <0>         0.0000
      7 C7          0.8227   -0.6244    4.8162 C.3       1 <0>         0.0000
      8 O1          4.0191   -2.3060    2.6643 O.3       1 <0>         0.0000
      9 O2          1.9313   -1.2101    4.1363 O.3       1 <0>         0.0000
     10 Cl1         1.8463   -0.9670   -1.7309 Cl        1 <0>         0.0000
     11 H1          0.0308   -0.1172    2.6887 H         1 <0>         0.0000
     12 H2         -0.0120   -0.0109    0.2295 H         1 <0>         0.0000
     13 H3          3.7662   -2.0809    0.0749 H         1 <0>         0.0000
     14 H4          0.9570   -0.7337    5.8951 H         1 <0>         0.0000
     15 H5         -0.1006   -1.1172    4.5014 H         1 <0>         0.0000
     16 H6          0.7712    0.4373    4.5634 H         1 <0>         0.0000
     17 H7          4.6574   -2.6332    2.0112 H         1 <0>         0.0000
@<TRIPOS>BOND
     1    1    2 ar
     2    1    4 ar
     3    2    6 ar
     4    3    5 ar
     5    3    6 ar
     6    4    5 ar
     7    4    9 1
     8    5    8 1
     9    6   10 1
    10    7    9 1
    11    1   11 1
    12    2   12 1
    13    3   13 1
    14    7   14 1
    15    7   15 1
    16    7   16 1
    17    8   17 1
@<TRIPOS>MOLECULE
SAMPL4_009
   23    23     0     0     0
SMALL
NO_CHARGES

@<TRIPOS>ATOM
      1 C1          1.6889   -0.9014    3.3121 C.ar      1 <0>         0.0000
      2 C2          2.9107   -1.5654    0.8936 C.ar      1 <0>         0.0000
      3 C3          1.6781   -0.9124    0.8963 C.ar      1 <0>         0.0000
      4 C4          3.5324   -1.8864    2.1003 C.ar      1 <0>         0.0000
      5 C5          1.0672   -0.5804    2.1055 C.ar      1 <0>         0.0000
      6 C6          2.9216   -1.5544    3.3096 C.ar      1 <0>         0.0000
      7 C7          1.0492   -0.5526    4.5804 C.2       1 <0>         0.0000
      8 C8          0.2109   -1.5841   -0.8507 C.3       1 <0>         0.0000
      9 C9          4.7151   -3.9494    2.0731 C.3       1 <0>         0.0000
     10 O1         -0.0584   -0.9761    4.9057 O.2       1 <0>         0.0000
     11 O2          3.5083   -1.8894   -0.2887 O.3       1 <0>         0.0000
     12 O3          1.0858   -0.6062   -0.2947 O.3       1 <0>         0.0000
     13 O4          4.7386   -2.5246    2.0769 O.3       1 <0>         0.0000
     14 Cl1        -0.4640    0.2320    2.0878 Cl        1 <0>         0.0000
     15 Cl2         3.7110   -1.9608    4.7985 Cl        1 <0>         0.0000
     16 H1          1.6085    0.1237    5.2568 H         1 <0>         0.0000
     17 H2         -0.1933   -1.2165   -1.7971 H         1 <0>         0.0000
     18 H3         -0.6023   -1.7876   -0.1495 H         1 <0>         0.0000
     19 H4          0.7734   -2.5034   -1.0301 H         1 <0>         0.0000
     20 H5          5.7387   -4.3315    2.0537 H         1 <0>         0.0000
     21 H6          4.1661   -4.3034    1.1969 H         1 <0>         0.0000
     22 H7          4.2153   -4.2991    2.9796 H         1 <0>         0.0000
     23 H8          4.3530   -2.3359   -0.1241 H         1 <0>         0.0000
@<TRIPOS>BOND
     1    1    5 ar
     2    1    6 ar
     3    1    7 1
     4    2    3 ar
     5    2    4 ar
     6    2   11 1
     7    3    5 ar
     8    3   12 1
     9    4    6 ar
    10    4   13 1
    11    5   14 1
    12    6   15 1
    13    7   10 2
    14    8   12 1
    15    9   13 1
    16    7   16 1
    17    8   17 1
    18    8   18 1
    19    8   19 1
    20    9   20 1
    21    9   21 1
    22    9   22 1
    23   11   23 1
@<TRIPOS>MOLECULE
SAMPL4_010
   21    21     0     0     0
SMALL
NO_CHARGES

@<TRIPOS>ATOM
      1 C1          1.5138   -0.7423    0.4897 C.ar      1 <0>         0.0000
      2 C2          2.5029   -1.7249    2.9061 C.ar      1 <0>         0.0000
      3 C3          1.3218   -0.9831    2.8859 C.ar      1 <0>         0.0000
      4 C4          3.1895   -1.9754    1.7180 C.ar      1 <0>         0.0000
      5 C5          0.8273   -0.4918    1.6777 C.ar      1 <0>         0.0000
      6 C6          2.6949   -1.4842    0.5098 C.ar      1 <0>         0.0000
      7 C7          1.0160    0.4346    4.7707 C.3       1 <0>         0.0000
      8 C8          5.5581   -1.9788    1.9304 C.3       1 <0>         0.0000
      9 O1          2.9869   -2.2047    4.0874 O.3       1 <0>         0.0000
     10 O2          0.6607   -0.7460    4.0558 O.3       1 <0>         0.0000
     11 O3          4.3435   -2.7029    1.7529 O.3       1 <0>         0.0000
     12 Cl1        -0.6329    0.4258    1.6219 Cl        1 <0>         0.0000
     13 Cl2         3.5208   -1.7818   -0.9754 Cl        1 <0>         0.0000
     14 H1          1.1261   -0.3617   -0.4530 H         1 <0>         0.0000
     15 H2          0.4167    0.5040    5.6818 H         1 <0>         0.0000
     16 H3          0.8421    1.3099    4.1399 H         1 <0>         0.0000
     17 H4          2.0745    0.3841    5.0366 H         1 <0>         0.0000
     18 H5          6.4002   -2.6752    1.9402 H         1 <0>         0.0000
     19 H6          5.5188   -1.4247    2.8716 H         1 <0>         0.0000
     20 H7          5.6782   -1.2772    1.1016 H         1 <0>         0.0000
     21 H8          3.8088   -2.6962    3.9362 H         1 <0>         0.0000
@<TRIPOS>BOND
     1    1    5 ar
     2    1    6 ar
     3    2    3 ar
     4    2    4 ar
     5    2    9 1
     6    3    5 ar
     7    3   10 1
     8    4    6 ar
     9    4   11 1
    10    5   12 1
    11    6   13 1
    12    7   10 1
    13    8   11 1
    14    1   14 1
    15    7   15 1
    16    7   16 1
    17    7   17 1
    18    8   18 1
    19    8   19 1
    20    8   20 1
    21    9   21 1
@<TRIPOS>MOLECULE
SAMPL4_011
   23    23     0     0     0
SMALL
NO_CHARGES

@<TRIPOS>ATOM
      1 C1          2.8441   -1.7003    3.2480 C.ar      1 <0>         0.0000
      2 C2          1.6476   -0.9851    3.2965 C.ar      1 <0>         0.0000
      3 C3          3.4253   -2.0048    2.0170 C.ar      1 <0>         0.0000
      4 C4          2.8097   -1.5942    0.8345 C.ar      1 <0>         0.0000
      5 C5          1.6131   -0.8791    0.8830 C.ar      1 <0>         0.0000
      6 C6          1.0320   -0.5746    2.1140 C.ar      1 <0>         0.0000
      7 C7          1.0807   -0.6919    4.6077 C.2       1 <0>         0.0000
      8 C8          5.1571   -3.0854    3.2372 C.3       1 <0>         0.0000
      9 C9          0.0950   -1.3892   -0.8751 C.3       1 <0>         0.0000
     10 O1          0.7558   -1.5699    5.4086 O.2       1 <0>         0.0000
     11 O2          3.3797   -1.8932   -0.3677 O.3       1 <0>         0.0000
     12 O3          4.5942   -2.7038    1.9836 O.3       1 <0>         0.0000
     13 O4          1.0255   -0.4859   -0.2844 O.3       1 <0>         0.0000
     14 Cl1        -0.4541    0.3140    2.1626 Cl        1 <0>         0.0000
     15 H1          3.3294   -2.0235    4.1662 H         1 <0>         0.0000
     16 H2          0.9446    0.3769    4.8743 H         1 <0>         0.0000
     17 H3          6.0858   -3.6357    3.0680 H         1 <0>         0.0000
     18 H4          4.4450   -3.7100    3.7824 H         1 <0>         0.0000
     19 H5          5.3702   -2.1859    3.8197 H         1 <0>         0.0000
     20 H6         -0.2990   -0.9560   -1.7977 H         1 <0>         0.0000
     21 H7         -0.7205   -1.5838   -0.1740 H         1 <0>         0.0000
     22 H8          0.6068   -2.3268   -1.1050 H         1 <0>         0.0000
     23 H9          4.2013   -2.3901   -0.2332 H         1 <0>         0.0000
@<TRIPOS>BOND
     1    1    2 ar
     2    1    3 ar
     3    2    6 ar
     4    2    7 1
     5    3    4 ar
     6    3   12 1
     7    4    5 ar
     8    4   11 1
     9    5    6 ar
    10    5   13 1
    11    6   14 1
    12    7   10 2
    13    8   12 1
    14    9   13 1
    15    1   15 1
    16    7   16 1
    17    8   17 1
    18    8   18 1
    19    8   19 1
    20    9   20 1
    21    9   21 1
    22    9   22 1
    23   11   23 1
@<TRIPOS>MOLECULE
SAMPL4_012
   27    27     0     0     0
SMALL
NO_CHARGES

@<TRIPOS>ATOM
      1 C1          0.9081    0.7077   -0.0006 C.2       1 <0>         0.0000
      2 C2         -0.8140   -2.2037    2.8843 C.2       1 <0>         0.0000
      3 C3         -1.3904   -1.0547    2.5015 C.2       1 <0>         0.0000
      4 C4          0.4851    0.0696    1.3061 C.3       1 <0>         0.0000
      5 C5         -0.8623   -0.5069   -1.2705 C.3       1 <0>         0.0000
      6 C6         -1.2616   -1.2247    0.0196 C.3       1 <0>         0.0000
      7 C7          0.6128   -0.0968   -1.2618 C.3       1 <0>         0.0000
      8 C8         -0.9858   -0.3457    1.2464 C.3       1 <0>         0.0000
      9 C9         -2.4769   -0.4059    3.3068 C.3       1 <0>         0.0000
     10 C10         0.9642    0.6826   -2.5250 C.3       1 <0>         0.0000
     11 O1          1.5300    1.7689   -0.0156 O.2       1 <0>         0.0000
     12 H1         -1.1144   -2.7098    3.7956 H         1 <0>         0.0000
     13 H2         -0.0285   -2.6651    2.2950 H         1 <0>         0.0000
     14 H3          1.1423   -0.7888    1.4894 H         1 <0>         0.0000
     15 H4          0.6454    0.7918    2.1154 H         1 <0>         0.0000
     16 H5         -1.0606   -1.1654   -2.1246 H         1 <0>         0.0000
     17 H6         -1.4980    0.3794   -1.3956 H         1 <0>         0.0000
     18 H7         -2.3274   -1.4809   -0.0308 H         1 <0>         0.0000
     19 H8         -0.7113   -2.1717    0.0962 H         1 <0>         0.0000
     20 H9          1.2436   -0.9937   -1.2210 H         1 <0>         0.0000
     21 H10        -1.6024    0.5588    1.1634 H         1 <0>         0.0000
     22 H11        -2.0464    0.2875    4.0366 H         1 <0>         0.0000
     23 H12        -3.1523    0.1538    2.6516 H         1 <0>         0.0000
     24 H13        -3.0770   -1.1388    3.8566 H         1 <0>         0.0000
     25 H14         0.3504    1.5804   -2.5900 H         1 <0>         0.0000
     26 H15         0.7840    0.0650   -3.4043 H         1 <0>         0.0000
     27 H16         2.0145    0.9713   -2.5029 H         1 <0>         0.0000
@<TRIPOS>BOND
     1    1    4 1
     2    1    7 1
     3    1   11 2
     4    2    3 2
     5    3    8 1
     6    3    9 1
     7    4    8 1
     8    5    6 1
     9    5    7 1
    10    6    8 1
    11    7   10 1
    12    2   12 1
    13    2   13 1
    14    4   14 1
    15    4   15 1
    16    5   16 1
    17    5   17 1
    18    6   18 1
    19    6   19 1
    20    7   20 1
    21    8   21 1
    22    9   22 1
    23    9   23 1
    24    9   24 1
    25   10   25 1
    26   10   26 1
    27   10   27 1
@<TRIPOS>MOLECULE
SAMPL4_013
   27    27     0     0     0
SMALL
NO_CHARGES

@<TRIPOS>ATOM
      1 C1         -0.5826   -0.6708   -1.2596 C.2       1 <0>         0.0000
      2 C2          0.5220    0.0957   -1.2543 C.2       1 <0>         0.0000
      3 C3         -2.3018   -0.3046    3.2910 C.2       1 <0>         0.0000
      4 C4         -1.4427   -0.9302    2.4728 C.2       1 <0>         0.0000
      5 C5         -1.3259   -1.0781   -0.0208 C.3       1 <0>         0.0000
      6 C6          0.6106   -0.1307    1.2811 C.3       1 <0>         0.0000
      7 C7          1.1465    0.5826    0.0320 C.3       1 <0>         0.0000
      8 C8         -0.9170   -0.2801    1.2282 C.3       1 <0>         0.0000
      9 C9          1.2103    0.4879   -2.5302 C.3       1 <0>         0.0000
     10 C10        -0.9531   -2.3206    2.7501 C.3       1 <0>         0.0000
     11 O1          0.8993    1.9814    0.1748 O.3       1 <0>         0.0000
     12 H1         -0.9895   -1.0242   -2.2036 H         1 <0>         0.0000
     13 H2         -2.6765   -0.7837    4.1893 H         1 <0>         0.0000
     14 H3         -2.6505    0.7013    3.0815 H         1 <0>         0.0000
     15 H4         -2.4010   -0.9439   -0.1951 H         1 <0>         0.0000
     16 H5         -1.1633   -2.1527    0.1336 H         1 <0>         0.0000
     17 H6          1.0734   -1.1243    1.3565 H         1 <0>         0.0000
     18 H7          0.8984    0.4295    2.1799 H         1 <0>         0.0000
     19 H8          2.2327    0.4420   -0.0036 H         1 <0>         0.0000
     20 H9         -1.3651    0.7207    1.1691 H         1 <0>         0.0000
     21 H10         0.7925    1.4236   -2.8934 H         1 <0>         0.0000
     22 H11         1.0643   -0.2913   -3.2746 H         1 <0>         0.0000
     23 H12         2.2747    0.6103   -2.3440 H         1 <0>         0.0000
     24 H13        -1.6176   -3.0568    2.2862 H         1 <0>         0.0000
     25 H14         0.0544   -2.4564    2.3435 H         1 <0>         0.0000
     26 H15        -0.9120   -2.5375    3.8228 H         1 <0>         0.0000
     27 H16         1.3150    2.2500    1.0082 H         1 <0>         0.0000
@<TRIPOS>BOND
     1    1    2 2
     2    1    5 1
     3    2    7 1
     4    2    9 1
     5    3    4 2
     6    4    8 1
     7    4   10 1
     8    5    8 1
     9    6    7 1
    10    6    8 1
    11    7   11 1
    12    1   12 1
    13    3   13 1
    14    3   14 1
    15    5   15 1
    16    5   16 1
    17    6   17 1
    18    6   18 1
    19    7   19 1
    20    8   20 1
    21    9   21 1
    22    9   22 1
    23    9   23 1
    24   10   24 1
    25   10   25 1
    26   10   26 1
    27   11   27 1
@<TRIPOS>MOLECULE
SAMPL4_014
   25    25     0     0     0
SMALL
NO_CHARGES

@<TRIPOS>ATOM
      1 C1         -0.6484   -0.7413   -1.1458 C.2       1 <0>         0.0000
      2 C2          0.3454    0.1583   -1.1479 C.2       1 <0>         0.0000
      3 C3         -2.3768   -0.4370    3.4027 C.2       1 <0>         0.0000
      4 C4          0.9301    0.5244   -2.4402 C.2       1 <0>         0.0000
      5 C5         -1.4459   -0.9716    2.5985 C.2       1 <0>         0.0000
      6 C6         -1.3329   -1.1894    0.1147 C.3       1 <0>         0.0000
      7 C7          0.9029    0.7886    0.0916 C.3       1 <0>         0.0000
      8 C8          0.4768    0.0562    1.3688 C.3       1 <0>         0.0000
      9 C9         -1.0154   -0.3011    1.3307 C.3       1 <0>         0.0000
     10 C10        -0.7769   -2.2757    2.9173 C.3       1 <0>         0.0000
     11 O1          1.8405    1.3369   -2.5454 O.2       1 <0>         0.0000
     12 H1         -0.9988   -1.1872   -2.0730 H         1 <0>         0.0000
     13 H2         -2.6819   -0.9308    4.3192 H         1 <0>         0.0000
     14 H3         -2.8554    0.5068    3.1631 H         1 <0>         0.0000
     15 H4          0.4901    0.0157   -3.3139 H         1 <0>         0.0000
     16 H5         -2.4170   -1.1927   -0.0544 H         1 <0>         0.0000
     17 H6         -1.0398   -2.2298    0.3068 H         1 <0>         0.0000
     18 H7          1.9983    0.8098    0.0482 H         1 <0>         0.0000
     19 H8          0.5617    1.8301    0.1386 H         1 <0>         0.0000
     20 H9          1.0764   -0.8579    1.4803 H         1 <0>         0.0000
     21 H10         0.7040    0.6876    2.2368 H         1 <0>         0.0000
     22 H11        -1.5907    0.6295    1.2417 H         1 <0>         0.0000
     23 H12        -1.3405   -3.1079    2.4831 H         1 <0>         0.0000
     24 H13         0.2382   -2.2917    2.5073 H         1 <0>         0.0000
     25 H14        -0.7037   -2.4492    3.9962 H         1 <0>         0.0000
@<TRIPOS>BOND
     1    1    2 2
     2    1    6 1
     3    2    4 1
     4    2    7 1
     5    3    5 2
     6    4   11 2
     7    5    9 1
     8    5   10 1
     9    6    9 1
    10    7    8 1
    11    8    9 1
    12    1   12 1
    13    3   13 1
    14    3   14 1
    15    4   15 1
    16    6   16 1
    17    6   17 1
    18    7   18 1
    19    7   19 1
    20    8   20 1
    21    8   21 1
    22    9   22 1
    23   10   23 1
    24   10   24 1
    25   10   25 1
@<TRIPOS>MOLECULE
SAMPL4_015
   27    27     0     0     0
SMALL
NO_CHARGES

@<TRIPOS>ATOM
      1 C1          1.0941    0.6059   -0.2993 C.2       1 <0>         0.0000
      2 C2          0.4523    0.1765   -1.3966 C.2       1 <0>         0.0000
      3 C3          0.5046    0.4136    1.0513 C.2       1 <0>         0.0000
      4 C4         -0.8537   -0.5729   -1.3418 C.3       1 <0>         0.0000
      5 C5         -1.1357   -1.1689    0.0360 C.3       1 <0>         0.0000
      6 C6         -0.9127   -0.1388    1.1423 C.3       1 <0>         0.0000
      7 C7          1.0071    0.4225   -2.7698 C.3       1 <0>         0.0000
      8 C8         -2.6759   -0.8229    2.7937 C.3       1 <0>         0.0000
      9 C9         -0.5530   -2.1496    2.6018 C.3       1 <0>         0.0000
     10 C10        -1.1760   -0.7581    2.5122 C.3       1 <0>         0.0000
     11 O1          1.1475    0.7646    2.0392 O.2       1 <0>         0.0000
     12 H1          2.0425    1.1290   -0.3551 H         1 <0>         0.0000
     13 H2         -1.6642    0.1091   -1.6265 H         1 <0>         0.0000
     14 H3         -0.8466   -1.3896   -2.0736 H         1 <0>         0.0000
     15 H4         -2.1652   -1.5451    0.0648 H         1 <0>         0.0000
     16 H5         -0.4766   -2.0336    0.1932 H         1 <0>         0.0000
     17 H6         -1.5977    0.7075    1.0037 H         1 <0>         0.0000
     18 H7          1.6525   -0.4054   -3.0525 H         1 <0>         0.0000
     19 H8          1.5783    1.3479   -2.7690 H         1 <0>         0.0000
     20 H9          0.1886    0.5077   -3.4806 H         1 <0>         0.0000
     21 H10        -3.1926   -1.4487    2.0578 H         1 <0>         0.0000
     22 H11        -3.1210    0.1770    2.7597 H         1 <0>         0.0000
     23 H12        -2.8673   -1.2409    3.7876 H         1 <0>         0.0000
     24 H13        -0.9851   -2.8283    1.8584 H         1 <0>         0.0000
     25 H14        -0.7154   -2.5855    3.5933 H         1 <0>         0.0000
     26 H15         0.5276   -2.1031    2.4298 H         1 <0>         0.0000
     27 H16        -0.7096   -0.1220    3.2746 H         1 <0>         0.0000
@<TRIPOS>BOND
     1    1    2 2
     2    1    3 1
     3    2    4 1
     4    2    7 1
     5    3    6 1
     6    3   11 2
     7    4    5 1
     8    5    6 1
     9    6   10 1
    10    8   10 1
    11    9   10 1
    12    1   12 1
    13    4   13 1
    14    4   14 1
    15    5   15 1
    16    5   16 1
    17    6   17 1
    18    7   18 1
    19    7   19 1
    20    7   20 1
    21    8   21 1
    22    8   22 1
    23    8   23 1
    24    9   24 1
    25    9   25 1
    26    9   26 1
    27   10   27 1
@<TRIPOS>MOLECULE
SAMPL4_016
   31    31     0     0     0
SMALL
NO_CHARGES

@<TRIPOS>ATOM
      1 C1         -0.9421   -0.4471   -1.3188 C.3       1 <0>         0.0000
      2 C2         -1.2800   -1.0230    0.0547 C.3       1 <0>         0.0000
      3 C3          1.0105    0.7954   -0.3202 C.3       1 <0>         0.0000
      4 C4          0.5534   -0.1347   -1.4484 C.3       1 <0>         0.0000
      5 C5         -0.8222   -0.0983    1.1900 C.3       1 <0>         0.0000
      6 C6          0.6750    0.2268    1.0604 C.3       1 <0>         0.0000
      7 C7          0.8601    0.4801   -2.8127 C.3       1 <0>         0.0000
      8 C8         -2.6458   -0.9292    2.7022 C.3       1 <0>         0.0000
      9 C9         -0.3996   -2.0509    2.7100 C.3       1 <0>         0.0000
     10 C10        -1.1414   -0.7277    2.5487 C.3       1 <0>         0.0000
     11 O1          1.0374    1.1845    2.0523 O.3       1 <0>         0.0000
     12 H1         -1.2433   -1.1621   -2.0936 H         1 <0>         0.0000
     13 H2         -1.5307    0.4646   -1.4823 H         1 <0>         0.0000
     14 H3         -2.3625   -1.1861    0.1186 H         1 <0>         0.0000
     15 H4         -0.8050   -2.0068    0.1600 H         1 <0>         0.0000
     16 H5          2.0919    0.9711   -0.3874 H         1 <0>         0.0000
     17 H6          0.5456    1.7846   -0.4311 H         1 <0>         0.0000
     18 H7          1.1129   -1.0764   -1.3695 H         1 <0>         0.0000
     19 H8         -1.3874    0.8413    1.1326 H         1 <0>         0.0000
     20 H9          1.2715   -0.6779    1.2353 H         1 <0>         0.0000
     21 H10         0.3195    1.4185   -2.9245 H         1 <0>         0.0000
     22 H11         0.5544   -0.2039   -3.6027 H         1 <0>         0.0000
     23 H12         1.9284    0.6712   -2.8996 H         1 <0>         0.0000
     24 H13        -3.0376   -1.6117    1.9401 H         1 <0>         0.0000
     25 H14        -3.1783    0.0232    2.6096 H         1 <0>         0.0000
     26 H15        -2.8803   -1.3496    3.6858 H         1 <0>         0.0000
     27 H16        -0.7054   -2.7763    1.9483 H         1 <0>         0.0000
     28 H17        -0.5999   -2.4881    3.6940 H         1 <0>         0.0000
     29 H18         0.6823   -1.9046    2.6230 H         1 <0>         0.0000
     30 H19        -0.8009   -0.0405    3.3309 H         1 <0>         0.0000
     31 H20         1.9908    1.3340    1.9565 H         1 <0>         0.0000
@<TRIPOS>BOND
     1    1    2 1
     2    1    4 1
     3    2    5 1
     4    3    4 1
     5    3    6 1
     6    4    7 1
     7    5    6 1
     8    5   10 1
     9    6   11 1
    10    8   10 1
    11    9   10 1
    12    1   12 1
    13    1   13 1
    14    2   14 1
    15    2   15 1
    16    3   16 1
    17    3   17 1
    18    4   18 1
    19    5   19 1
    20    6   20 1
    21    7   21 1
    22    7   22 1
    23    7   23 1
    24    8   24 1
    25    8   25 1
    26    8   26 1
    27    9   27 1
    28    9   28 1
    29    9   29 1
    30   10   30 1
    31   11   31 1
@<TRIPOS>MOLECULE
SAMPL4_017
   29    29     0     0     0
SMALL
NO_CHARGES

@<TRIPOS>ATOM
      1 C1          0.5462    0.3822    1.0662 C.2       1 <0>         0.0000
      2 C2          0.9556    0.9448   -0.2786 C.3       1 <0>         0.0000
      3 C3         -1.2058   -1.0585    0.0291 C.3       1 <0>         0.0000
      4 C4         -0.8677   -0.4478   -1.3310 C.3       1 <0>         0.0000
      5 C5         -0.8975   -0.0951    1.1783 C.3       1 <0>         0.0000
      6 C6          0.6094   -0.0362   -1.4001 C.3       1 <0>         0.0000
      7 C7          0.9374    0.5698   -2.7630 C.3       1 <0>         0.0000
      8 C8         -2.6676   -0.7450    2.8361 C.3       1 <0>         0.0000
      9 C9         -0.6315   -2.1847    2.5443 C.3       1 <0>         0.0000
     10 C10        -1.1719   -0.7560    2.5254 C.3       1 <0>         0.0000
     11 O1          1.3195    0.4007    2.0226 O.2       1 <0>         0.0000
     12 H1          0.4432    1.9044   -0.4116 H         1 <0>         0.0000
     13 H2          2.0343    1.1377   -0.2668 H         1 <0>         0.0000
     14 H3         -2.2675   -1.3324    0.0469 H         1 <0>         0.0000
     15 H4         -0.6338   -1.9871    0.1541 H         1 <0>         0.0000
     16 H5         -1.0882   -1.1792   -2.1177 H         1 <0>         0.0000
     17 H6         -1.5121    0.4216   -1.5127 H         1 <0>         0.0000
     18 H7         -1.5338    0.7948    1.0924 H         1 <0>         0.0000
     19 H8          1.2216   -0.9394   -1.2727 H         1 <0>         0.0000
     20 H9          0.3446    1.4696   -2.9193 H         1 <0>         0.0000
     21 H10         0.7110   -0.1475   -3.5501 H         1 <0>         0.0000
     22 H11         1.9945    0.8270   -2.8080 H         1 <0>         0.0000
     23 H12        -3.2342   -1.3064    2.0852 H         1 <0>         0.0000
     24 H13        -3.0527    0.2799    2.8541 H         1 <0>         0.0000
     25 H14        -2.8654   -1.1942    3.8151 H         1 <0>         0.0000
     26 H15        -1.1163   -2.8039    1.7819 H         1 <0>         0.0000
     27 H16        -0.8019   -2.6529    3.5196 H         1 <0>         0.0000
     28 H17         0.4468   -2.1942    2.3526 H         1 <0>         0.0000
     29 H18        -0.6546   -0.1823    3.3047 H         1 <0>         0.0000
@<TRIPOS>BOND
     1    1    2 1
     2    1    5 1
     3    1   11 2
     4    2    6 1
     5    3    4 1
     6    3    5 1
     7    4    6 1
     8    5   10 1
     9    6    7 1
    10    8   10 1
    11    9   10 1
    12    2   12 1
    13    2   13 1
    14    3   14 1
    15    3   15 1
    16    4   16 1
    17    4   17 1
    18    5   18 1
    19    6   19 1
    20    7   20 1
    21    7   21 1
    22    7   22 1
    23    8   23 1
    24    8   24 1
    25    8   25 1
    26    9   26 1
    27    9   27 1
    28    9   28 1
    29   10   29 1
@<TRIPOS>MOLECULE
SAMPL4_018
   26    28     0     0     0
SMALL
NO_CHARGES

@<TRIPOS>ATOM
      1 C1          1.2904   -1.6865   -0.3516 C.ar      1 <0>         0.0000
      2 C2          0.9563   -0.4630    0.2256 C.ar      1 <0>         0.0000
      3 C3          2.5179   -2.2839   -0.0640 C.ar      1 <0>         0.0000
      4 C4          1.8484    0.1684    1.0928 C.ar      1 <0>         0.0000
      5 C5          6.8845   -2.2140    2.3149 C.ar      1 <0>         0.0000
      6 C6          6.2150    0.2382    3.4720 C.ar      1 <0>         0.0000
      7 C7          3.4160   -1.6538    0.8057 C.ar      1 <0>         0.0000
      8 C8          3.0812   -0.4277    1.3842 C.ar      1 <0>         0.0000
      9 C9          5.6516   -1.6180    2.0237 C.ar      1 <0>         0.0000
     10 C10         5.3168   -0.3919    2.6022 C.ar      1 <0>         0.0000
     11 C11         7.7766   -1.5826    3.1822 C.ar      1 <0>         0.0000
     12 C12         7.4425   -0.3591    3.7594 C.ar      1 <0>         0.0000
     13 C13         4.7134   -2.2938    1.1043 C.2       1 <0>         0.0000
     14 C14         4.0194    0.2481    2.3036 C.2       1 <0>         0.0000
     15 O1          5.0070   -3.3688    0.5962 O.2       1 <0>         0.0000
     16 O2          3.7255    1.3231    2.8113 O.2       1 <0>         0.0000
     17 O3          8.9735   -2.1731    3.4568 O.3       1 <0>         0.0000
     18 O4          8.3080    0.2641    4.6072 O.3       1 <0>         0.0000
     19 H1          0.5945   -2.1754   -1.0274 H         1 <0>         0.0000
     20 H2          0.0000   -0.0001   -0.0004 H         1 <0>         0.0000
     21 H3          2.7549   -3.2381   -0.5273 H         1 <0>         0.0000
     22 H4          1.5645    1.1220    1.5294 H         1 <0>         0.0000
     23 H5          7.1625   -3.1683    1.8745 H         1 <0>         0.0000
     24 H6          5.9719    1.1930    3.9320 H         1 <0>         0.0000
     25 H7          9.0500   -3.0133    2.9781 H         1 <0>         0.0000
     26 H8          7.9274    1.0998    4.9199 H         1 <0>         0.0000
@<TRIPOS>BOND
     1    1    2 ar
     2    1    3 ar
     3    2    4 ar
     4    3    7 ar
     5    4    8 ar
     6    5    9 ar
     7    5   11 ar
     8    6   10 ar
     9    6   12 ar
    10    7    8 ar
    11    7   13 1
    12    8   14 1
    13    9   10 ar
    14    9   13 1
    15   10   14 1
    16   11   12 ar
    17   11   17 1
    18   12   18 1
    19   13   15 2
    20   14   16 2
    21    1   19 1
    22    2   20 1
    23    3   21 1
    24    4   22 1
    25    5   23 1
    26    6   24 1
    27   17   25 1
    28   18   26 1
@<TRIPOS>MOLECULE
SAMPL4_019
   26    28     0     0     0
SMALL
NO_CHARGES

@<TRIPOS>ATOM
      1 C1          1.3819   -0.3503    0.2052 C.ar      1 <0>         0.0000
      2 C2          1.7167   -1.5748   -0.3654 C.ar      1 <0>         0.0000
      3 C3          7.8284   -0.2366    3.7421 C.ar      1 <0>         0.0000
      4 C4          8.1631   -1.4610    3.1712 C.ar      1 <0>         0.0000
      5 C5          2.1892    0.1973    1.2015 C.ar      1 <0>         0.0000
      6 C6          2.8589   -2.2520    0.0602 C.ar      1 <0>         0.0000
      7 C7          6.5399    0.2740    3.5887 C.ar      1 <0>         0.0000
      8 C8          7.2093   -2.1753    2.4471 C.ar      1 <0>         0.0000
      9 C9          3.3472   -0.4697    1.6293 C.ar      1 <0>         0.0000
     10 C10         3.6848   -1.7050    1.0538 C.ar      1 <0>         0.0000
     11 C11         5.5756   -0.4304    2.8520 C.ar      1 <0>         0.0000
     12 C12         5.9131   -1.6657    2.2765 C.ar      1 <0>         0.0000
     13 C13         4.1813    0.1308    2.7325 C.3       1 <0>         0.0000
     14 C14         4.8934   -2.4775    1.5184 C.3       1 <0>         0.0000
     15 H1          0.4895    0.1757   -0.1208 H         1 <0>         0.0000
     16 H2          1.0859   -2.0057   -1.1374 H         1 <0>         0.0000
     17 H3          8.5682    0.3183    4.3116 H         1 <0>         0.0000
     18 H4          9.1646   -1.8629    3.2944 H         1 <0>         0.0000
     19 H5          1.9098    1.1492    1.6464 H         1 <0>         0.0000
     20 H6          3.1024   -3.2131   -0.3865 H         1 <0>         0.0000
     21 H7          6.2889    1.2266    4.0493 H         1 <0>         0.0000
     22 H8          7.4811   -3.1356    2.0161 H         1 <0>         0.0000
     23 H9          4.2598    1.2110    2.5547 H         1 <0>         0.0000
     24 H10         3.6611   -0.0249    3.6858 H         1 <0>         0.0000
     25 H11         4.5548   -3.2983    2.1626 H         1 <0>         0.0000
     26 H12         5.3848   -2.9098    0.6369 H         1 <0>         0.0000
@<TRIPOS>BOND
     1    1    2 ar
     2    1    5 ar
     3    2    6 ar
     4    3    4 ar
     5    3    7 ar
     6    4    8 ar
     7    5    9 ar
     8    6   10 ar
     9    7   11 ar
    10    8   12 ar
    11    9   10 ar
    12    9   13 1
    13   10   14 1
    14   11   12 ar
    15   11   13 1
    16   12   14 1
    17    1   15 1
    18    2   16 1
    19    3   17 1
    20    4   18 1
    21    5   19 1
    22    6   20 1
    23    7   21 1
    24    8   22 1
    25   13   23 1
    26   13   24 1
    27   14   25 1
    28   14   26 1
@<TRIPOS>MOLECULE
SAMPL4_020
   26    27     0     0     0
SMALL
NO_CHARGES

@<TRIPOS>ATOM
      1 C1          4.8471    0.6385    6.4601 C.ar      1 <0>         0.0000
      2 C2          1.6969   -1.2030   -0.1608 C.ar      1 <0>         0.0000
      3 C3          5.1378   -0.4100    5.5873 C.ar      1 <0>         0.0000
      4 C4          3.5405    1.1152    6.5669 C.ar      1 <0>         0.0000
      5 C5          1.7312    0.0210    0.5071 C.ar      1 <0>         0.0000
      6 C6          1.6816   -2.3937    0.5657 C.ar      1 <0>         0.0000
      7 C7          4.1219   -0.9818    4.8213 C.ar      1 <0>         0.0000
      8 C8          2.5247    0.5435    5.8008 C.ar      1 <0>         0.0000
      9 C9          1.7503    0.0544    1.9014 C.ar      1 <0>         0.0000
     10 C10         1.7007   -2.3603    1.9600 C.ar      1 <0>         0.0000
     11 C11         2.8154   -0.5051    4.9280 C.ar      1 <0>         0.0000
     12 C12         1.7351   -1.1362    2.6279 C.ar      1 <0>         0.0000
     13 C13         0.6927   -1.6765    4.7553 C.2       1 <0>         0.0000
     14 C14         1.7557   -1.1009    4.1294 C.2       1 <0>         0.0000
     15 H1          5.6378    1.0828    7.0574 H         1 <0>         0.0000
     16 H2          1.6807   -1.2290   -1.2464 H         1 <0>         0.0000
     17 H3          6.1549   -0.7822    5.5049 H         1 <0>         0.0000
     18 H4          3.3139    1.9308    7.2472 H         1 <0>         0.0000
     19 H5          1.7420    0.9484   -0.0583 H         1 <0>         0.0000
     20 H6          1.6537   -3.3469    0.0458 H         1 <0>         0.0000
     21 H7          4.3641   -1.7985    4.1453 H         1 <0>         0.0000
     22 H8          1.5112    0.9261    5.8953 H         1 <0>         0.0000
     23 H9          1.7772    1.0164    2.4079 H         1 <0>         0.0000
     24 H10         1.6884   -3.2970    2.5122 H         1 <0>         0.0000
     25 H11        -0.1136   -2.1293    4.1855 H         1 <0>         0.0000
     26 H12         0.5887   -1.7172    5.8359 H         1 <0>         0.0000
@<TRIPOS>BOND
     1    1    3 ar
     2    1    4 ar
     3    2    5 ar
     4    2    6 ar
     5    3    7 ar
     6    4    8 ar
     7    5    9 ar
     8    6   10 ar
     9    7   11 ar
    10    8   11 ar
    11    9   12 ar
    12   10   12 ar
    13   11   14 1
    14   12   14 1
    15   13   14 2
    16    1   15 1
    17    2   16 1
    18    3   17 1
    19    4   18 1
    20    5   19 1
    21    6   20 1
    22    7   21 1
    23    8   22 1
    24    9   23 1
    25   10   24 1
    26   13   25 1
    27   13   26 1
@<TRIPOS>MOLECULE
SAMPL4_021
   22    23     0     0     0
SMALL
NO_CHARGES

@<TRIPOS>ATOM
      1 C1          4.8259    0.3917    6.2162 C.ar      1 <0>         0.0000
      2 C2          4.8939   -0.8687    5.6226 C.ar      1 <0>         0.0000
      3 C3          3.6489    1.1363    6.1393 C.ar      1 <0>         0.0000
      4 C4          3.7848   -1.3845    4.9521 C.ar      1 <0>         0.0000
      5 C5          2.5399    0.6205    5.4688 C.ar      1 <0>         0.0000
      6 C6          2.1634   -1.4951    0.6433 C.2       1 <0>         0.0000
      7 C7          2.3246   -1.9622    1.9263 C.2       1 <0>         0.0000
      8 C8          1.0107   -0.1938    1.8715 C.2       1 <0>         0.0000
      9 C9          2.6078   -0.6399    4.8752 C.ar      1 <0>         0.0000
     10 C10         1.4216   -1.1907    4.1582 C.3       1 <0>         0.0000
     11 N1          1.3447   -0.3939    0.6160 N.2       1 <0>         0.0000
     12 N2          1.5807   -1.1184    2.7020 N.pl3     1 <0>         0.0000
     13 H1          5.6892    0.7927    6.7394 H         1 <0>         0.0000
     14 H2          5.8099   -1.4490    5.6833 H         1 <0>         0.0000
     15 H3          3.5953    2.1172    6.6023 H         1 <0>         0.0000
     16 H4          3.8470   -2.3674    4.4924 H         1 <0>         0.0000
     17 H5          1.6271    1.2078    5.4139 H         1 <0>         0.0000
     18 H6          2.5953   -1.8956   -0.2622 H         1 <0>         0.0000
     19 H7          2.8835   -2.7908    2.3384 H         1 <0>         0.0000
     20 H8          0.3672    0.5953    2.2358 H         1 <0>         0.0000
     21 H9          1.2371   -2.2445    4.4214 H         1 <0>         0.0000
     22 H10         0.4979   -0.6503    4.4194 H         1 <0>         0.0000
@<TRIPOS>BOND
     1    1    2 ar
     2    1    3 ar
     3    2    4 ar
     4    3    5 ar
     5    4    9 ar
     6    5    9 ar
     7    6    7 2
     8    6   11 1
     9    7   12 1
    10    8   11 2
    11    8   12 1
    12    9   10 1
    13   10   12 1
    14    1   13 1
    15    2   14 1
    16    3   15 1
    17    4   16 1
    18    5   17 1
    19    6   18 1
    20    7   19 1
    21    8   20 1
    22   10   21 1
    23   10   22 1
@<TRIPOS>MOLECULE
SAMPL4_022
   33    34     0     0     0
SMALL
NO_CHARGES

@<TRIPOS>ATOM
      1 C1          2.5423    1.6435    7.1216 C.ar      1 <0>         0.0000
      2 C2          1.4729    1.4855    6.2401 C.ar      1 <0>         0.0000
      3 C3          1.3606    0.2442    0.7267 C.ar      1 <0>         0.0000
      4 C4          3.7200    0.9221    6.9258 C.ar      1 <0>         0.0000
      5 C5          1.0834   -0.9512    0.0636 C.ar      1 <0>         0.0000
      6 C6          1.5812    0.6060    5.1629 C.ar      1 <0>         0.0000
      7 C7          1.9469    0.2201    1.9922 C.ar      1 <0>         0.0000
      8 C8          3.8283    0.0426    5.8486 C.ar      1 <0>         0.0000
      9 C9          1.3923   -2.1708    0.6660 C.ar      1 <0>         0.0000
     10 C10         1.9785   -2.1949    1.9315 C.ar      1 <0>         0.0000
     11 C11         2.7589   -0.1154    4.9671 C.ar      1 <0>         0.0000
     12 C12         2.2558   -0.9995    2.5946 C.ar      1 <0>         0.0000
     13 C13         5.0718   -0.6969    5.6718 C.2       1 <0>         0.0000
     14 C14         1.0849   -3.4360   -0.0660 C.3       1 <0>         0.0000
     15 C15         2.3081   -3.5056    2.5743 C.3       1 <0>         0.0000
     16 N1          2.8472   -1.0024    3.8711 N.pl3     1 <0>         0.0000
     17 O1          5.5312   -1.0706    4.5898 O.2       1 <0>         0.0000
     18 O2          5.6995   -0.9432    6.8530 O.3       1 <0>         0.0000
     19 H1          2.4588    2.3286    7.9601 H         1 <0>         0.0000
     20 H2          0.5558    2.0468    6.3932 H         1 <0>         0.0000
     21 H3          1.1205    1.1938    0.2574 H         1 <0>         0.0000
     22 H4          4.5453    1.0536    7.6210 H         1 <0>         0.0000
     23 H5          0.6265   -0.9215   -0.9222 H         1 <0>         0.0000
     24 H6          0.7410    0.4914    4.4828 H         1 <0>         0.0000
     25 H7          2.1586    1.1583    2.4989 H         1 <0>         0.0000
     26 H8          1.9397   -3.7345   -0.6837 H         1 <0>         0.0000
     27 H9          0.8554   -4.2512    0.6311 H         1 <0>         0.0000
     28 H10         0.2091   -3.3151   -0.7154 H         1 <0>         0.0000
     29 H11         3.3240   -3.8127    2.3044 H         1 <0>         0.0000
     30 H12         2.2393   -3.4367    3.6658 H         1 <0>         0.0000
     31 H13         1.6079   -4.2866    2.2564 H         1 <0>         0.0000
     32 H14         3.4565   -1.7959    4.0412 H         1 <0>         0.0000
     33 H15         6.5385   -1.4400    6.7446 H         1 <0>         0.0000
@<TRIPOS>BOND
     1    1    2 ar
     2    1    4 ar
     3    2    6 ar
     4    3    5 ar
     5    3    7 ar
     6    4    8 ar
     7    5    9 ar
     8    6   11 ar
     9    7   12 ar
    10    8   11 ar
    11    8   13 1
    12    9   10 ar
    13    9   14 1
    14   10   12 ar
    15   10   15 1
    16   11   16 1
    17   12   16 1
    18   13   17 2
    19   13   18 1
    20    1   19 1
    21    2   20 1
    22    3   21 1
    23    4   22 1
    24    5   23 1
    25    6   24 1
    26    7   25 1
    27   14   26 1
    28   14   27 1
    29   14   28 1
    30   15   29 1
    31   15   30 1
    32   15   31 1
    33   16   32 1
    34   18   33 1
@<TRIPOS>MOLECULE
SAMPL4_023
   40    41     0     0     0
SMALL
NO_CHARGES

@<TRIPOS>ATOM
      1 C1          4.6570    1.3350    6.9997 C.ar      1 <0>         0.0000
      2 C2         -0.7645   -3.2212    5.8394 C.ar      1 <0>         0.0000
      3 C3          4.9587   -0.0250    6.9297 C.ar      1 <0>         0.0000
      4 C4          3.6978    1.8814    6.1470 C.ar      1 <0>         0.0000
      5 C5          0.5123   -3.7693    5.9624 C.ar      1 <0>         0.0000
      6 C6         -0.9422   -2.0106    5.1697 C.ar      1 <0>         0.0000
      7 C7          4.3013   -0.8386    6.0069 C.ar      1 <0>         0.0000
      8 C8          3.0404    1.0679    5.2242 C.ar      1 <0>         0.0000
      9 C9          1.6113   -3.1067    5.4158 C.ar      1 <0>         0.0000
     10 C10         0.1568   -1.3480    4.6231 C.ar      1 <0>         0.0000
     11 C11         3.3421   -0.2922    5.1542 C.ar      1 <0>         0.0000
     12 C12         1.4336   -1.8960    4.7461 C.ar      1 <0>         0.0000
     13 C13         1.5709   -0.4879   -1.7141 C.3       1 <0>         0.0000
     14 C14         0.1109   -1.8863   -0.4159 C.3       1 <0>         0.0000
     15 C15         1.6474   -0.4036    0.6857 C.3       1 <0>         0.0000
     16 C16         2.0253   -1.2581    1.8819 C.3       1 <0>         0.0000
     17 C17         2.6280   -1.1750    4.1518 C.3       1 <0>         0.0000
     18 N1          1.4308   -1.2599   -0.4800 N.3       1 <0>         0.0000
     19 O1          2.2695   -0.4189    3.0034 O.3       1 <0>         0.0000
     20 H1          5.1681    1.9681    7.7192 H         1 <0>         0.0000
     21 H2         -1.6203   -3.7379    6.2639 H         1 <0>         0.0000
     22 H3          5.7047   -0.4509    7.5943 H         1 <0>         0.0000
     23 H4          3.4619    2.9401    6.2020 H         1 <0>         0.0000
     24 H5          0.6507   -4.7124    6.4829 H         1 <0>         0.0000
     25 H6         -1.9362   -1.5841    5.0727 H         1 <0>         0.0000
     26 H7          4.5429   -1.8972    5.9593 H         1 <0>         0.0000
     27 H8          2.2946    1.5023    4.5638 H         1 <0>         0.0000
     28 H9          2.6024   -3.5411    5.5167 H         1 <0>         0.0000
     29 H10         0.0088   -0.4052    4.1031 H         1 <0>         0.0000
     30 H11         2.5590   -0.0224   -1.7560 H         1 <0>         0.0000
     31 H12         0.8103    0.2964   -1.7578 H         1 <0>         0.0000
     32 H13         1.4520   -1.1402   -2.5835 H         1 <0>         0.0000
     33 H14         0.0125   -2.4615    0.5084 H         1 <0>         0.0000
     34 H15        -0.0296   -2.5594   -1.2660 H         1 <0>         0.0000
     35 H16        -0.6714   -1.1229   -0.4403 H         1 <0>         0.0000
     36 H17         0.7271    0.1582    0.8743 H         1 <0>         0.0000
     37 H18         2.4532    0.2977    0.4489 H         1 <0>         0.0000
     38 H19         2.9436   -1.8144    1.6699 H         1 <0>         0.0000
     39 H20         1.2303   -1.9659    2.1382 H         1 <0>         0.0000
     40 H21         3.3385   -1.9223    3.7754 H         1 <0>         0.0000
@<TRIPOS>BOND
     1    1    3 ar
     2    1    4 ar
     3    2    5 ar
     4    2    6 ar
     5    3    7 ar
     6    4    8 ar
     7    5    9 ar
     8    6   10 ar
     9    7   11 ar
    10    8   11 ar
    11    9   12 ar
    12   10   12 ar
    13   11   17 1
    14   12   17 1
    15   13   18 1
    16   14   18 1
    17   15   16 1
    18   15   18 1
    19   16   19 1
    20   17   19 1
    21    1   20 1
    22    2   21 1
    23    3   22 1
    24    4   23 1
    25    5   24 1
    26    6   25 1
    27    7   26 1
    28    8   27 1
    29    9   28 1
    30   10   29 1
    31   13   30 1
    32   13   31 1
    33   13   32 1
    34   14   33 1
    35   14   34 1
    36   14   35 1
    37   15   36 1
    38   15   37 1
    39   16   38 1
    40   16   39 1
    41   17   40 1
@<TRIPOS>MOLECULE
SAMPL4_024
   44    46     0     0     0
SMALL
NO_CHARGES

@<TRIPOS>ATOM
      1 C1          3.8661    1.0813    6.7822 C.ar      1 <0>         0.0000
      2 C2          0.9648   -0.4232    0.5624 C.ar      1 <0>         0.0000
      3 C3          5.1179    0.5220    6.5793 C.ar      1 <0>         0.0000
      4 C4          1.7764   -1.4226    0.0320 C.ar      1 <0>         0.0000
      5 C5          2.7822    0.6464    6.0201 C.ar      1 <0>         0.0000
      6 C6          0.9433   -0.1992    1.9387 C.ar      1 <0>         0.0000
      7 C7          5.2812   -0.4677    5.6124 C.ar      1 <0>         0.0000
      8 C8          2.5704   -2.1988    0.8762 C.ar      1 <0>         0.0000
      9 C9          2.9207   -0.3684    5.0472 C.ar      1 <0>         0.0000
     10 C10         1.7352   -0.9783    2.7961 C.ar      1 <0>         0.0000
     11 C11         4.1976   -0.9338    4.8345 C.ar      1 <0>         0.0000
     12 C12         2.5583   -1.9833    2.2616 C.ar      1 <0>         0.0000
     13 C13         1.7209   -0.7511    4.2566 C.2       1 <0>         0.0000
     14 C14         0.5613   -1.0058    4.8937 C.2       1 <0>         0.0000
     15 C15         4.5483   -1.9884    3.7998 C.3       1 <0>         0.0000
     16 C16         3.4252   -2.8149    3.1718 C.3       1 <0>         0.0000
     17 C17        -3.8878   -2.9650    5.3887 C.3       1 <0>         0.0000
     18 C18        -2.6371   -3.6838    3.4673 C.3       1 <0>         0.0000
     19 C19        -0.7015   -1.3977    4.1936 C.3       1 <0>         0.0000
     20 C20        -1.6220   -2.2259    5.0849 C.3       1 <0>         0.0000
     21 N1         -2.8465   -2.5840    4.4217 N.3       1 <0>         0.0000
     22 H1          3.7267    1.8493    7.5371 H         1 <0>         0.0000
     23 H2          0.3474    0.1815   -0.0953 H         1 <0>         0.0000
     24 H3          5.9651    0.8458    7.1762 H         1 <0>         0.0000
     25 H4          1.7895   -1.5997   -1.0395 H         1 <0>         0.0000
     26 H5          1.8142    1.1081    6.2079 H         1 <0>         0.0000
     27 H6          0.3019    0.5851    2.3342 H         1 <0>         0.0000
     28 H7          6.2749   -0.8873    5.4650 H         1 <0>         0.0000
     29 H8          3.1964   -2.9758    0.4450 H         1 <0>         0.0000
     30 H9          0.5390   -0.9116    5.9717 H         1 <0>         0.0000
     31 H10         5.0568   -1.4773    2.9706 H         1 <0>         0.0000
     32 H11         5.2842   -2.6655    4.2546 H         1 <0>         0.0000
     33 H12         2.8090   -3.2323    3.9785 H         1 <0>         0.0000
     34 H13         3.8241   -3.6786    2.6251 H         1 <0>         0.0000
     35 H14        -4.0516   -2.1543    6.1033 H         1 <0>         0.0000
     36 H15        -3.5848   -3.8614    5.9367 H         1 <0>         0.0000
     37 H16        -4.8276   -3.1723    4.8700 H         1 <0>         0.0000
     38 H17        -1.8647   -3.4111    2.7434 H         1 <0>         0.0000
     39 H18        -3.5641   -3.8984    2.9286 H         1 <0>         0.0000
     40 H19        -2.3213   -4.5875    3.9953 H         1 <0>         0.0000
     41 H20        -0.4861   -1.9478    3.2692 H         1 <0>         0.0000
     42 H21        -1.2223   -0.4778    3.9026 H         1 <0>         0.0000
     43 H22        -1.8971   -1.6510    5.9750 H         1 <0>         0.0000
     44 H23        -1.1385   -3.1516    5.4147 H         1 <0>         0.0000
@<TRIPOS>BOND
     1    1    3 ar
     2    1    5 ar
     3    2    4 ar
     4    2    6 ar
     5    3    7 ar
     6    4    8 ar
     7    5    9 ar
     8    6   10 ar
     9    7   11 ar
    10    8   12 ar
    11    9   11 ar
    12    9   13 1
    13   10   12 ar
    14   10   13 1
    15   11   15 1
    16   12   16 1
    17   13   14 2
    18   14   19 1
    19   15   16 1
    20   17   21 1
    21   18   21 1
    22   19   20 1
    23   20   21 1
    24    1   22 1
    25    2   23 1
    26    3   24 1
    27    4   25 1
    28    5   26 1
    29    6   27 1
    30    7   28 1
    31    8   29 1
    32   14   30 1
    33   15   31 1
    34   15   32 1
    35   16   33 1
    36   16   34 1
    37   17   35 1
    38   17   36 1
    39   17   37 1
    40   18   38 1
    41   18   39 1
    42   18   40 1
    43   19   41 1
    44   19   42 1
    45   20   43 1
    46   20   44 1
