@<TRIPOS>MOLECULE
*****
  184   204     0     0     0
SMALL
USER_CHARGES

@<TRIPOS>ATOM
      1 C1          1.0290   -4.2200    2.4110 C.ar      1 MOL       -0.1640
      2 C2         -1.6870   -3.7290    2.0370 C.ar      1 MOL       -0.0802
      3 C3          0.3080   -3.5220    3.3780 C.ar      1 MOL        0.0497
      4 C4          0.3680   -4.7370    1.3020 C.ar      1 MOL        0.0522
      5 C5         -0.9890   -4.4750    1.0710 C.ar      1 MOL       -0.0468
      6 C6         -1.0580   -3.2340    3.1960 C.ar      1 MOL       -0.0501
      7 C7         -1.6800   -5.1050   -0.1320 C.3       1 MOL        0.0133
      8 C8         -1.8500   -2.5060    4.2770 C.3       1 MOL        0.0211
      9 C9          0.6690   -4.0090    5.6240 C.3       1 MOL        0.3631
     10 C10        -2.3280   -3.5170    5.3270 C.ar      1 MOL       -0.0547
     11 C11        -3.0340   -1.6300    3.8030 C.3       1 MOL       -0.0822
     12 C12        -2.8850   -4.3260   -0.7160 C.3       1 MOL       -0.0795
     13 C13        -3.1820   -5.3760    7.2500 C.ar      1 MOL        0.0498
     14 C14        -1.5060   -3.8670    6.4000 C.ar      1 MOL        0.0577
     15 C15        -3.5860   -4.1420    5.2350 C.ar      1 MOL       -0.0832
     16 C16        -4.0660   -5.0170    6.2180 C.ar      1 MOL       -0.0758
     17 C17        -1.9340   -4.7650    7.3750 C.ar      1 MOL       -0.1754
     18 C18        -5.4440   -5.6550    6.1170 C.3       1 MOL        0.0299
     19 C19        -5.3530   -6.9360    5.2900 C.ar      1 MOL       -0.0560
     20 C20        -6.7080   -4.7620    5.9130 C.3       1 MOL       -0.0438
     21 C21        -4.9940   -9.3170    3.8210 C.ar      1 MOL        0.0555
     22 C22        -5.0140   -8.1400    5.9230 C.ar      1 MOL        0.0470
     23 C23        -5.4750   -6.9530    3.8930 C.ar      1 MOL       -0.0888
     24 C24        -5.3030   -8.1310    3.1300 C.ar      1 MOL       -0.0542
     25 C25        -4.9000   -9.3310    5.2120 C.ar      1 MOL       -0.1753
     26 C26        -5.3470   -8.0940    1.5960 C.3       1 MOL        0.0160
     27 C27        -6.2910   -6.9880    1.0220 C.3       1 MOL       -0.0628
     28 C28        -3.9330   -7.9730    1.0570 C.ar      1 MOL       -0.0528
     29 C29        -1.2990   -7.6400    0.1000 C.ar      1 MOL        0.0583
     30 C30        -3.0790   -9.0700    0.8730 C.ar      1 MOL        0.0487
     31 C31        -3.4080   -6.7040    0.7680 C.ar      1 MOL       -0.0697
     32 C32        -2.1210   -6.5120    0.2280 C.ar      1 MOL       -0.0556
     33 C33        -1.7860   -8.9180    0.3690 C.ar      1 MOL       -0.1702
     34 C34        -3.4250   -7.6710    7.5460 C.3       1 MOL        0.3637
     35 C35        -7.4970   -4.7520    4.6010 C.3       1 MOL       -0.2213
     36 C36        -2.6760   -0.4060    2.9650 C.3       1 MOL       -0.1791
     37 C37        -2.5570   -2.9650   -1.3150 C.3       1 MOL       -0.1897
     38 C38        -3.4230  -10.5370    2.6210 C.3       1 MOL        0.3613
     39 C39         0.8140   -6.9400    0.7510 C.3       1 MOL        0.3635
     40 C40        -2.7410  -11.8790    2.9080 C.ar      1 MOL       -0.0227
     41 C41        -2.7120   -8.6230    8.5080 C.ar      1 MOL       -0.0292
     42 C42         1.9430   -4.3740    6.3940 C.ar      1 MOL       -0.0256
     43 C43         2.1210   -7.7220    0.8590 C.ar      1 MOL       -0.0282
     44 C44        -1.2870  -14.2220    3.5110 C.ar      1 MOL       -0.1929
     45 C45        -2.7730  -12.4410    4.2000 C.ar      1 MOL       -0.1715
     46 C46        -1.9570  -12.5190    1.9300 C.ar      1 MOL       -0.1570
     47 C47        -1.2160  -13.6620    2.2400 C.ar      1 MOL        0.1110
     48 C48        -2.0630  -13.6120    4.4980 C.ar      1 MOL        0.1233
     49 C49        -1.2850  -10.4110   10.1640 C.ar      1 MOL       -0.1833
     50 C50        -3.2320   -9.8890    8.8190 C.ar      1 MOL       -0.1522
     51 C51        -1.4560   -8.2760    9.0370 C.ar      1 MOL       -0.1572
     52 C52        -0.7620   -9.1500    9.8830 C.ar      1 MOL        0.1203
     53 C53        -2.5070  -10.7850    9.6110 C.ar      1 MOL        0.1039
     54 C54         4.2250   -5.2570    7.8040 C.ar      1 MOL       -0.1904
     55 C55         1.9700   -4.3790    7.7990 C.ar      1 MOL       -0.1566
     56 C56         3.0880   -4.8290    5.7100 C.ar      1 MOL       -0.1647
     57 C57         4.2280   -5.2500    6.4090 C.ar      1 MOL        0.1262
     58 C58         3.0890   -4.8470    8.4930 C.ar      1 MOL        0.1060
     59 C59         4.4880   -9.2160    1.2380 C.ar      1 MOL       -0.1816
     60 C60         2.0850   -9.1240    0.9860 C.ar      1 MOL       -0.1584
     61 C61         3.3670   -7.0840    0.9350 C.ar      1 MOL       -0.1467
     62 C62         4.5330   -7.8260    1.1570 C.ar      1 MOL        0.1030
     63 C63         3.2600   -9.8680    1.1450 C.ar      1 MOL        0.1161
     64 C64         0.7360   -7.5660   10.7600 C.ar      1 MOL        0.0766
     65 C65         5.6200   -5.4550    4.5110 C.ar      1 MOL        0.0671
     66 C66         2.3410  -11.9650    0.6060 C.ar      1 MOL        0.0732
     67 C67        -2.9080  -13.8610    6.6940 C.ar      1 MOL        0.0726
     68 C68         1.3920   -4.9550   11.4940 C.ar      1 MOL       -0.1224
     69 C69         0.0200   -6.9390   11.7820 C.ar      1 MOL       -0.1350
     70 C70         1.7840   -6.9080   10.1160 C.ar      1 MOL       -0.1837
     71 C71         2.0920   -5.5910   10.4690 C.ar      1 MOL        0.0850
     72 C72         0.3440   -5.6250   12.1360 C.ar      1 MOL       -0.0967
     73 C73         6.2550   -4.9570    1.8440 C.ar      1 MOL       -0.1106
     74 C74         5.5420   -6.4890    3.5800 C.ar      1 MOL       -0.1773
     75 C75         6.0330   -4.1780    4.1310 C.ar      1 MOL       -0.1217
     76 C76         6.3500   -3.9270    2.7900 C.ar      1 MOL       -0.1145
     77 C77         5.8330   -6.2260    2.2400 C.ar      1 MOL        0.0733
     78 C78         6.7930   -2.5910    2.3250 C.2       1 MOL        0.9133
     79 C79         0.4820  -13.5450   -0.7490 C.ar      1 MOL       -0.1171
     80 C80         1.4350  -12.7390    1.3300 C.ar      1 MOL       -0.1795
     81 C81         2.3430  -11.9900   -0.7900 C.ar      1 MOL       -0.1265
     82 C82         1.4090  -12.7820   -1.4700 C.ar      1 MOL       -0.1089
     83 C83         0.4880  -13.5060    0.6460 C.ar      1 MOL        0.0724
     84 C84         1.4420  -12.7840   -2.9520 C.2       1 MOL        0.9118
     85 C85        -4.6840  -13.2590    8.7640 C.ar      1 MOL       -0.1150
     86 C86        -2.4680  -13.1190    7.7900 C.ar      1 MOL       -0.1745
     87 C87        -4.2210  -14.3250    6.6290 C.ar      1 MOL       -0.1257
     88 C88        -5.1040  -14.0310    7.6740 C.ar      1 MOL       -0.1033
     89 C89        -3.3700  -12.7940    8.8060 C.ar      1 MOL        0.0732
     90 C90        -6.4940  -14.5220    7.5760 C.2       1 MOL        0.9106
     91 C91        -0.3730   -4.9290   13.2250 C.2       1 MOL        0.9101
     92 C92        -3.4970   -1.9010   -0.8120 C.2       1 MOL        0.9105
     93 C93        -3.9540    0.3610    2.6970 C.2       1 MOL        0.9148
     94 C94        -6.8150   -4.0200    3.4670 C.2       1 MOL        0.8873
     95 C95        -6.4450   -7.0040   -0.5040 C.3       1 MOL       -0.1977
     96 C96        -6.7640   -5.6130   -1.0140 C.2       1 MOL        0.9196
     97 O1          0.9960   -3.1520    4.5090 O.3       1 MOL       -0.3335
     98 O2          1.0790   -5.5510    0.4570 O.3       1 MOL       -0.3424
     99 O3         -0.2470   -3.3450    6.5200 O.3       1 MOL       -0.3483
    100 O4         -3.4820   -6.3620    8.1620 O.3       1 MOL       -0.3411
    101 O5         -4.7500   -8.1790    7.2680 O.3       1 MOL       -0.3528
    102 O6         -4.7520  -10.5070    3.1780 O.3       1 MOL       -0.3384
    103 O7         -3.4910  -10.3350    1.1930 O.3       1 MOL       -0.3429
    104 O8          0.0130   -7.5380   -0.2930 O.3       1 MOL       -0.3346
    105 O9         -0.4280  -14.2970    1.3060 O.3       1 MOL       -0.2812
    106 O10        -1.9930  -14.2130    5.7370 O.3       1 MOL       -0.2785
    107 O11         0.4810   -8.8710   10.4090 O.3       1 MOL       -0.2780
    108 O12        -2.9840  -12.0470    9.8970 O.3       1 MOL       -0.2804
    109 O13         5.3750   -5.7500    5.8280 O.3       1 MOL       -0.2789
    110 O14         3.1180   -4.8940    9.8700 O.3       1 MOL       -0.2799
    111 O15         5.7610   -7.2120    1.2800 O.3       1 MOL       -0.2796
    112 O16         3.2740  -11.2370    1.3080 O.3       1 MOL       -0.2791
    113 O17         2.2240  -12.1630   -3.6470 O.co2     1 MOL       -0.8394
    114 O18         0.4870  -13.5600   -3.4920 O.co2     1 MOL       -0.8473
    115 O19         7.0710   -2.2940    1.1790 O.co2     1 MOL       -0.8441
    116 O20         6.8610   -1.6910    3.3210 O.co2     1 MOL       -0.8417
    117 O21         0.1910   -4.2310   14.0480 O.co2     1 MOL       -0.8651
    118 O22        -1.7080   -5.1190   13.1880 O.co2     1 MOL       -0.8197
    119 O23        -7.1300  -14.4970    6.5380 O.co2     1 MOL       -0.8161
    120 O24        -6.9620  -15.0240    8.7370 O.co2     1 MOL       -0.8675
    121 O25        -5.9240   -4.7580   -1.2740 O.co2     1 MOL       -0.8098
    122 O26        -8.0860   -5.3700   -1.1180 O.co2     1 MOL       -0.8982
    123 O27        -6.7740   -4.3500    2.2960 O.co2     1 MOL       -0.8051
    124 O28        -6.2350   -2.8870    3.9150 O.co2     1 MOL       -0.8095
    125 O29        -4.7970    0.5860    3.5620 O.co2     1 MOL       -0.8895
    126 O30        -4.1210    0.7630    1.4260 O.co2     1 MOL       -0.8477
    127 O31        -3.1090   -0.8480   -0.3150 O.co2     1 MOL       -0.9147
    128 O32        -4.8080   -2.1790   -0.9470 O.co2     1 MOL       -0.7784
    129 H1          2.0890   -4.4090    2.5470 H         1 MOL        0.1377
    130 H2         -2.7550   -3.5750    1.9100 H         1 MOL        0.2050
    131 H3         -1.1720   -1.7960    4.7710 H         1 MOL        0.0695
    132 H4         -0.9590   -5.1690   -0.9590 H         1 MOL        0.0722
    133 H5         -4.1990   -3.9510    4.3630 H         1 MOL        0.2450
    134 H6         -1.2840   -5.0130    8.2070 H         1 MOL        0.1356
    135 H7         -5.6680   -6.0000    7.1380 H         1 MOL        0.0598
    136 H8         -5.6500   -6.0160    3.3820 H         1 MOL        0.2375
    137 H9         -4.6880  -10.2540    5.7400 H         1 MOL        0.1357
    138 H10        -5.7750   -9.0440    1.2480 H         1 MOL        0.0648
    139 H11        -1.1540   -9.7870    0.2160 H         1 MOL        0.1336
    140 H12        -6.4150   -3.7280    6.1400 H         1 MOL        0.0838
    141 H13        -7.4170   -5.0410    6.7060 H         1 MOL       -0.0236
    142 H14        -3.5590   -1.2780    4.7020 H         1 MOL        0.0779
    143 H15        -3.7690   -2.2140    3.2380 H         1 MOL        0.0922
    144 H16        -3.6700   -4.2280    0.0430 H         1 MOL        0.0926
    145 H17        -3.3220   -4.9330   -1.5220 H         1 MOL        0.0833
    146 H18        -2.7990   -7.6640    6.6370 H         1 MOL        0.0788
    147 H19         0.2650   -4.9780    5.2810 H         1 MOL        0.0734
    148 H20        -2.7670   -9.7890    3.1010 H         1 MOL        0.0740
    149 H21         0.3380   -7.0580    1.7400 H         1 MOL        0.0727
    150 H22        -3.3460  -11.9440    4.9750 H         1 MOL        0.1704
    151 H23        -1.9090  -12.1250    0.9180 H         1 MOL        0.1793
    152 H24        -0.7230  -15.1220    3.7390 H         1 MOL        0.1341
    153 H25        -4.2030  -10.1910    8.4330 H         1 MOL        0.1751
    154 H26        -1.0130   -7.3210    8.7700 H         1 MOL        0.1718
    155 H27        -0.7360  -11.1040   10.7950 H         1 MOL        0.1339
    156 H28         1.1120   -4.0280    8.3680 H         1 MOL        0.1754
    157 H29         3.0730   -4.8660    4.6260 H         1 MOL        0.1725
    158 H30         5.0980   -5.6010    8.3510 H         1 MOL        0.1336
    159 H31         1.1270   -9.6340    0.9740 H         1 MOL        0.1706
    160 H32         3.4380   -6.0040    0.8360 H         1 MOL        0.1783
    161 H33         5.4010   -9.7830    1.3910 H         1 MOL        0.1333
    162 H34        -0.7500   -7.4890   12.3180 H         1 MOL        0.1560
    163 H35         2.3570   -7.4250    9.3510 H         1 MOL        0.1498
    164 H36         1.6610   -3.9420   11.7900 H         1 MOL        0.1527
    165 H37         5.2590   -7.4870    3.9010 H         1 MOL        0.1459
    166 H38         6.1180   -3.3950    4.8800 H         1 MOL        0.1654
    167 H39         6.5030   -4.7720    0.8000 H         1 MOL        0.1624
    168 H40         1.4720  -12.7430    2.4160 H         1 MOL        0.1464
    169 H41         3.0750  -11.4070   -1.3440 H         1 MOL        0.1670
    170 H42        -0.2450  -14.1700   -1.2620 H         1 MOL        0.1606
    171 H43        -1.4320  -12.7970    7.8450 H         1 MOL        0.1478
    172 H44        -4.5510  -14.9210    5.7810 H         1 MOL        0.1593
    173 H45        -5.3740  -12.9860    9.5590 H         1 MOL        0.1533
    174 H46        -2.6270   -2.9900   -2.4080 H         1 MOL       -0.0054
    175 H47        -1.5370   -2.6550   -1.0660 H         1 MOL        0.0187
    176 H48        -1.9870    0.2570    3.4990 H         1 MOL       -0.0105
    177 H49        -2.1970   -0.7090    2.0330 H         1 MOL        0.0576
    178 H50        -7.7620   -5.7550    4.2680 H         1 MOL        0.0284
    179 H51        -8.4350   -4.2090    4.7780 H         1 MOL        0.0019
    180 H52        -5.9420   -5.9910    1.3200 H         1 MOL        0.1215
    181 H53        -7.2870   -7.0970    1.4710 H         1 MOL        0.0391
    182 H54        -5.5370   -7.3270   -1.0220 H         1 MOL        0.0229
    183 H55        -7.2260   -7.7100   -0.8090 H         1 MOL       -0.0130
    184 H56        -4.0180   -5.8356    0.9686 H         1 MOL        0.2140
@<TRIPOS>BOND
     1    1    3 ar
     2    1    4 ar
     3    1  129 1
     4    2    5 ar
     5    2    6 ar
     6    2  130 1
     7    3    6 ar
     8    3   97 1
     9    4    5 ar
    10    4   98 1
    11    5    7 1
    12    6    8 1
    13    7   12 1
    14    7   32 1
    15    7  132 1
    16    8   10 1
    17    8   11 1
    18    8  131 1
    19    9   42 1
    20    9   97 1
    21    9   99 1
    22    9  147 1
    23   10   14 ar
    24   10   15 ar
    25   11   36 1
    26   11  142 1
    27   11  143 1
    28   12   37 1
    29   12  144 1
    30   12  145 1
    31   13   16 ar
    32   13   17 ar
    33   13  100 1
    34   14   17 ar
    35   14   99 1
    36   15   16 ar
    37   15  133 1
    38   16   18 1
    39   17  134 1
    40   18   19 1
    41   18   20 1
    42   18  135 1
    43   19   22 ar
    44   19   23 ar
    45   20   35 1
    46   20  140 1
    47   20  141 1
    48   21   24 ar
    49   21   25 ar
    50   21  102 1
    51   22   25 ar
    52   22  101 1
    53   23   24 ar
    54   23  136 1
    55   24   26 1
    56   25  137 1
    57   26   27 1
    58   26   28 1
    59   26  138 1
    60   27   95 1
    61   27  180 1
    62   27  181 1
    63   28   30 ar
    64   28   31 ar
    65   29   32 ar
    66   29   33 ar
    67   29  104 1
    68   30   33 ar
    69   30  103 1
    70   31   32 ar
    71   33  139 1
    72   34   41 1
    73   34  100 1
    74   34  101 1
    75   34  146 1
    76   35   94 1
    77   35  178 1
    78   35  179 1
    79   36   93 1
    80   36  176 1
    81   36  177 1
    82   37   92 1
    83   37  174 1
    84   37  175 1
    85   38   40 1
    86   38  102 1
    87   38  103 1
    88   38  148 1
    89   39   43 1
    90   39   98 1
    91   39  104 1
    92   39  149 1
    93   40   45 ar
    94   40   46 ar
    95   41   50 ar
    96   41   51 ar
    97   42   55 ar
    98   42   56 ar
    99   43   60 ar
   100   43   61 ar
   101   44   47 ar
   102   44   48 ar
   103   44  152 1
   104   45   48 ar
   105   45  150 1
   106   46   47 ar
   107   46  151 1
   108   47  105 1
   109   48  106 1
   110   49   52 ar
   111   49   53 ar
   112   49  155 1
   113   50   53 ar
   114   50  153 1
   115   51   52 ar
   116   51  154 1
   117   52  107 1
   118   53  108 1
   119   54   57 ar
   120   54   58 ar
   121   54  158 1
   122   55   58 ar
   123   55  156 1
   124   56   57 ar
   125   56  157 1
   126   57  109 1
   127   58  110 1
   128   59   62 ar
   129   59   63 ar
   130   59  161 1
   131   60   63 ar
   132   60  159 1
   133   61   62 ar
   134   61  160 1
   135   62  111 1
   136   63  112 1
   137   64   69 ar
   138   64   70 ar
   139   64  107 1
   140   65   74 ar
   141   65   75 ar
   142   65  109 1
   143   66   80 ar
   144   66   81 ar
   145   66  112 1
   146   67   86 ar
   147   67   87 ar
   148   67  106 1
   149   68   71 ar
   150   68   72 ar
   151   68  164 1
   152   69   72 ar
   153   69  162 1
   154   70   71 ar
   155   70  163 1
   156   71  110 1
   157   72   91 1
   158   73   76 ar
   159   73   77 ar
   160   73  167 1
   161   74   77 ar
   162   74  165 1
   163   75   76 ar
   164   75  166 1
   165   76   78 1
   166   77  111 1
   167   78  115 2
   168   78  116 1
   169   79   82 ar
   170   79   83 ar
   171   79  170 1
   172   80   83 ar
   173   80  168 1
   174   81   82 ar
   175   81  169 1
   176   82   84 1
   177   83  105 1
   178   84  113 2
   179   84  114 1
   180   85   88 ar
   181   85   89 ar
   182   85  173 1
   183   86   89 ar
   184   86  171 1
   185   87   88 ar
   186   87  172 1
   187   88   90 1
   188   89  108 1
   189   90  119 2
   190   90  120 1
   191   91  117 2
   192   91  118 1
   193   92  127 2
   194   92  128 1
   195   93  125 2
   196   93  126 1
   197   94  123 2
   198   94  124 1
   199   95   96 1
   200   95  182 1
   201   95  183 1
   202   96  121 2
   203   96  122 1
   204   31  184 1
