AVX101122_1, 3
##########                 Name:          AVX101122_0
##########          Protonation:                   18
##########               SMILES:   CN(Cc1ccccc1C(=O)NCc2ccc(cc2)OC)Cc3cccc(c3C(=O)[O-])OC
##########            Long Name:   [(4-methoxyphenyl)methylcarbamoyl]phenyl]methyl-methyl-amino]methyl]benzoate
##########          FlexRecCode: 1
##########               Number:                  435
##########   Ligand Source File: /raid1/people/rgc/Examples/sampl4/screening/ligands/build_1//sampl4-hivint-00000
##########           GlobalRank: 73
##########                 Rank:                    1
##########               Setnum:                  100
##########             Matchnum:                 5308
##########                Cloud:                    1
##########        Electrostatic:           -38.386208
##########        Van der Waals:           -14.269382
##########  Ligand Polar Desolv:            16.859079
########## Ligand Apolar Desolv:            -2.091825
##########      Internal Energy:             0.000000
##########      Receptor Energy: 0.0
########## Receptor Desolvation:             0.000000
########## Receptor Hydrophobic:             0.000000
##########         Total Energy: -37.89
##########        Ligand Charge:            -1.000000
##########            Arbitrary:    +999.9990
##########     heavy atom count:   33
##########           pose count:    1
##########        Ligand Energy:             0.000000
# num electro vdwattr vdwrepu polsolv apolsol rdesolv rhydroe totalscore fullpol fullapo
#   1    0.03   -0.74    0.18    0.00    0.01    0.00    0.00      -0.52    0.01    0.03
#   2   -0.30   -0.26    0.01    0.31    0.12    0.00    0.00      -0.11    2.36    0.93
#   3    0.14   -0.25    0.01   -0.08   -0.03    0.00    0.00      -0.22   -0.81   -0.31
#   4   -0.18   -0.10    0.00    0.04   -0.01    0.00    0.00      -0.25    1.05   -0.42
#   5   -0.06   -0.08    0.00    0.01   -0.01    0.00    0.00      -0.14    0.31   -0.45
#   6   -0.18   -0.16    0.00    0.07   -0.02    0.00    0.00      -0.29    1.15   -0.37
#   7    0.22   -0.07    0.00   -0.06   -0.02    0.00    0.00       0.08   -1.73   -0.44
#   8   -0.94   -0.10    0.00    0.26    0.08    0.00    0.00      -0.69    7.32    2.32
#   9    0.70   -0.08    0.00   -0.27   -0.02    0.00    0.00       0.33   -9.06   -0.65
#  10   -0.70   -0.05    0.00    0.32    0.01    0.00    0.00      -0.42   12.82    0.32
#  11   -0.15   -0.10    0.00    0.10   -0.02    0.00    0.00      -0.17    2.80   -0.41
#  12   -0.08   -0.07    0.00    0.02   -0.01    0.00    0.00      -0.14    0.62   -0.44
#  13   -0.11   -0.10    0.00    0.04   -0.02    0.00    0.00      -0.19    1.07   -0.47
#  14   -0.08   -0.26    0.01    0.15   -0.05    0.00    0.00      -0.23    1.49   -0.47
#  15   -0.10   -0.48    0.04    0.45   -0.06    0.00    0.00      -0.15    3.00   -0.38
#  16    0.00   -0.26    0.01    0.13   -0.04    0.00    0.00      -0.16    1.31   -0.39
#  17    0.42   -0.33    0.01   -0.67   -0.05    0.00    0.00      -0.62   -3.48   -0.28
#  18   -5.92   -0.88    0.07    3.64    0.52    0.00    0.00      -2.57   13.62    1.96
#  19    0.36   -2.17    1.31   -0.27   -0.17    0.00    0.00      -0.94   -0.70   -0.44
#  20    1.64   -0.32    0.01   -0.56   -0.06    0.00    0.00       0.71   -3.04   -0.31
#  21   -0.26   -0.65    0.04    0.10   -0.07    0.00    0.00      -0.85    0.44   -0.32
#  22   -2.37   -0.90    0.09    0.79   -0.12    0.00    0.00      -2.52    2.68   -0.41
#  23   -1.27   -1.24    0.24    0.09   -0.17    0.00    0.00      -2.35    0.26   -0.47
#  24   -3.82   -1.38    0.28    1.34   -0.17    0.00    0.00      -3.75    3.41   -0.42
#  25    3.31   -0.97    0.08   -1.04   -0.11    0.00    0.00       1.27   -2.98   -0.31
#  26   -6.00   -1.06    0.11    3.95    0.14    0.00    0.00      -2.86    9.85    0.36
#  27    0.30   -1.48    0.52   -0.02    0.01    0.00    0.00      -0.67   -0.05    0.03
#  28   -3.71   -0.71    0.05    1.94   -0.10    0.00    0.00      -2.52    8.07   -0.41
#  29   17.32   -1.11    0.61   -4.26   -0.04    0.00    0.00      12.53  -19.08   -0.17
#  30  -16.98   -0.91    0.66    4.96   -0.05    0.00    0.00     -12.32   28.80   -0.31
#  31  -32.32   -2.94    4.37   10.90   -0.19    0.00    0.00     -20.18   33.25   -0.59
#  32   -0.09   -0.47    0.03    0.09   -0.07    0.00    0.00      -0.52    0.53   -0.45
#  33   -0.23   -0.62    0.06    0.29   -0.10    0.00    0.00      -0.59    1.37   -0.46
#  34    0.05   -0.44    0.46   -0.02   -0.05    0.00    0.00       0.00   -0.10   -0.26
#  35    0.08   -0.28    0.06   -0.03   -0.07    0.00    0.00      -0.24   -0.10   -0.26
#  36    0.15   -0.25    0.04   -0.02   -0.08    0.00    0.00      -0.17   -0.08   -0.28
#  37    0.09   -0.01    0.00   -0.01    0.00    0.00    0.00       0.07   -0.46   -0.22
#  38    0.10   -0.01    0.00   -0.01    0.00    0.00    0.00       0.09   -0.64   -0.28
#  39    0.08   -0.01    0.00   -0.01    0.00    0.00    0.00       0.07   -0.64   -0.28
#  40    0.12   -0.03    0.00   -0.02   -0.01    0.00    0.00       0.07   -0.77   -0.28
#  41    0.49    0.00    0.00   -0.07    0.01    0.00    0.00       0.43   -3.02    0.43
#  42    0.09   -0.01    0.00   -0.01    0.00    0.00    0.00       0.07   -1.20   -0.22
#  43    0.08   -0.01    0.00   -0.02    0.00    0.00    0.00       0.04   -1.19   -0.28
#  44    0.10   -0.07    0.00   -0.13   -0.02    0.00    0.00      -0.11   -1.96   -0.28
#  45    0.14   -0.27    0.10   -0.38   -0.04    0.00    0.00      -0.44   -2.07   -0.21
#  46    0.41   -0.06    0.00   -0.01   -0.01    0.00    0.00       0.32   -0.35   -0.25
#  47    0.10   -0.16    0.01   -0.22   -0.04    0.00    0.00      -0.30   -1.34   -0.22
#  48    1.71   -1.03    1.07   -0.50   -0.08    0.00    0.00       1.17   -1.38   -0.22
#  49    1.48   -0.58    0.27   -0.34   -0.07    0.00    0.00       0.75   -1.10   -0.23
#  50    0.21   -1.42    2.54   -0.37   -0.12    0.00    0.00       0.83   -0.84   -0.28
#  51    1.13   -0.05    0.00   -0.03   -0.01    0.00    0.00       1.04   -0.84   -0.20
#  52    0.31   -0.13    0.02   -0.14   -0.03    0.00    0.00       0.02   -1.36   -0.27
#  53    0.91   -0.19    0.03   -0.40   -0.05    0.00    0.00       0.29   -2.38   -0.28
#  54    1.17   -0.26    0.04   -0.56   -0.08    0.00    0.00       0.30   -1.85   -0.28
#  55    1.48   -0.37    0.08   -0.82   -0.08    0.00    0.00       0.28   -2.40   -0.22
#  56    0.54   -0.76    0.66   -0.44   -0.09    0.00    0.00      -0.09   -1.23   -0.26
#  57    0.27   -0.86    0.62   -0.52   -0.11    0.00    0.00      -0.61   -1.23   -0.26
#  58    1.22   -0.21    0.02   -0.38   -0.06    0.00    0.00       0.59   -1.69   -0.28
#  59    0.26   -0.15    0.01   -0.17   -0.05    0.00    0.00      -0.09   -1.05   -0.28
#  60    0.25   -0.25    0.05   -0.25   -0.07    0.00    0.00      -0.28   -1.00   -0.28

@<TRIPOS>MOLECULE
      AVX101122_0        18
   60    62     0     0     0



@<TRIPOS>ATOM
      1 C1          7.6656   -13.7163     7.7462 C.3        1           0.0267
      2 O1          8.2683   -12.6736     8.5154 O.3        1          -0.3178
      3 C2          9.2730   -13.0303     9.3580 C.ar       1           0.1320
      4 C3          9.8988   -12.0697    10.1391 C.ar       1          -0.2111
      5 C4         10.9197   -12.4351    10.9952 C.ar       1          -0.0597
      6 C5         11.3180   -13.7568    11.0737 C.ar       1          -0.1436
      7 C6         12.4321   -14.1524    12.0082 C.3        1           0.1665
      8 N1         13.7143   -14.0628    11.3050 N.am       1          -0.7287
      9 C7         14.8581   -14.3719    11.9474 C.2        1           0.5610
     10 O2         14.8259   -14.7250    13.1101 O.2        1          -0.5284
     11 C8         16.1519   -14.2812    11.2379 C.ar       1          -0.1504
     12 C9         17.1517   -13.4286    11.7091 C.ar       1          -0.0929
     13 C10        18.3569   -13.3492    11.0426 C.ar       1          -0.1412
     14 C11        18.5756   -14.1120     9.9089 C.ar       1          -0.0965
     15 C12        17.5889   -14.9590     9.4366 C.ar       1          -0.0951
     16 C13        16.3812   -15.0521    10.0973 C.ar       1           0.0015
     17 C14        15.3096   -15.9797     9.5847 C.3        1           0.1071
     18 N2         15.9073   -17.2780     9.2451 N.3        1          -0.5103
     19 C15        15.0429   -18.0313     8.3266 C.3        1           0.0185
     20 C16        16.1949   -18.0580    10.4562 C.3        1           0.1072
     21 C17        17.2179   -19.1184    10.1397 C.ar       1          -0.0138
     22 C18        18.3349   -18.8002     9.3989 C.ar       1          -0.1742
     23 C19        19.2792   -19.7706     9.1052 C.ar       1          -0.0926
     24 C20        19.1120   -21.0667     9.5508 C.ar       1          -0.2347
     25 C21        17.9939   -21.4066    10.2976 C.ar       1           0.1503
     26 O3         17.8281   -22.6792    10.7355 O.3        1          -0.2675
     27 C22        18.3816   -23.0031    12.0126 C.3        1           0.0229
     28 C23        17.0376   -20.4257    10.6025 C.ar       1          -0.1469
     29 C24        15.8499   -20.7720    11.3995 C.2        1           0.5249
     30 O4         15.8816   -20.6741    12.6185 O.co2      1          -0.6656
     31 O5         14.8310   -21.1577    10.8431 O.co2      1          -0.6800
     32 C25        10.6956   -14.7162    10.2966 C.ar       1          -0.0587
     33 C26         9.6707   -14.3568     9.4428 C.ar       1          -0.1529
     34 H1          6.8804   -13.2965     7.1173 H          1           0.0561
     35 H2          8.4213   -14.1876     7.1179 H          1           0.0559
     36 H3          7.2352   -14.4601     8.4168 H          1           0.1001
     37 H4          9.5885   -11.0371    10.0777 H          1           0.1289
     38 H5         11.4072   -11.6876    11.6036 H          1           0.1274
     39 H6         12.4411   -13.4817    12.8673 H          1           0.0774
     40 H7         12.2750   -15.1762    12.3481 H          1           0.0747
     41 H8         13.7399   -13.7810    10.3772 H          1           0.3990
     42 H9         16.9820   -12.8322    12.5932 H          1           0.1172
     43 H10        19.1311   -12.6899    11.4061 H          1           0.1206
     44 H11        19.5206   -14.0456     9.3904 H          1           0.1222
     45 H12        17.7660   -15.5513     8.5511 H          1           0.1480
     46 H13        14.5511   -16.1193    10.3550 H          1           0.0996
     47 H14        14.8498   -15.5477     8.6959 H          1           0.0580
     48 H15        15.5091   -18.9880     8.0916 H          1           0.0589
     49 H16        14.0755   -18.2045     8.7980 H          1           0.0655
     50 H17        14.9028   -17.4602     7.4089 H          1           0.0151
     51 H18        16.5844   -17.3968    11.2302 H          1           0.1218
     52 H19        15.2787   -18.5311    10.8097 H          1           0.0147
     53 H20        18.4751   -17.7894     9.0452 H          1           0.1093
     54 H21        20.1516   -19.5117     8.5234 H          1           0.1109
     55 H22        19.8529   -21.8170     9.3173 H          1           0.1160
     56 H23        18.1785   -24.0491    12.2418 H          1           0.0440
     57 H24        19.4588   -22.8376    11.9943 H          1           0.0441
     58 H25        17.9297   -22.3695    12.7758 H          1           0.0919
     59 H26        11.0083   -15.7480    10.3600 H          1           0.1341
     60 H27         9.1823   -15.1071     8.8387 H          1           0.1328
@<TRIPOS>BOND
     1    1    2 1
     2    1   34 1
     3    1   35 1
     4    1   36 1
     5    2    3 1
     6    3   33 ar
     7    3    4 ar
     8    4    5 ar
     9    4   37 1
    10    5    6 ar
    11    5   38 1
    12    6    7 1
    13    6   32 ar
    14    7    8 1
    15    7   39 1
    16    7   40 1
    17    8    9 am
    18    8   41 1
    19    9   10 2
    20    9   11 1
    21   11   16 ar
    22   11   12 ar
    23   12   13 ar
    24   12   42 1
    25   13   14 ar
    26   13   43 1
    27   14   15 ar
    28   14   44 1
    29   15   16 ar
    30   15   45 1
    31   16   17 1
    32   17   18 1
    33   17   46 1
    34   17   47 1
    35   18   19 1
    36   18   20 1
    37   19   48 1
    38   19   49 1
    39   19   50 1
    40   20   21 1
    41   20   51 1
    42   20   52 1
    43   21   28 ar
    44   21   22 ar
    45   22   23 ar
    46   22   53 1
    47   23   24 ar
    48   23   54 1
    49   24   25 ar
    50   24   55 1
    51   25   26 1
    52   25   28 ar
    53   26   27 1
    54   27   56 1
    55   27   57 1
    56   27   58 1
    57   28   29 1
    58   29   30 1
    59   29   31 2
    60   32   33 ar
    61   32   59 1
    62   33   60 1
