AVX17287_0, 3
##########                 Name:           AVX17287_0
##########          Protonation:                  100
##########               SMILES:   c1ccc2c(c1)c(c[nH]2)Cc3ccc4c(c3C(=O)[O-])OCO4
##########            Long Name:   5-(1H-indol-3-ylmethyl)-1,3-benzodioxole-4-carboxylate
##########          FlexRecCode: 1
##########               Number:                  341
##########   Ligand Source File: /raid1/people/rgc/Examples/sampl4/screening/ligands/build_1//sampl4-hivint-00000
##########           GlobalRank: 6
##########                 Rank:                    1
##########               Setnum:                    8
##########             Matchnum:                 4635
##########                Cloud:                    1
##########        Electrostatic:           -46.119064
##########        Van der Waals:           -19.901672
##########  Ligand Polar Desolv:            21.650986
########## Ligand Apolar Desolv:            -2.686706
##########      Internal Energy:             0.000000
##########      Receptor Energy: 0.0
########## Receptor Desolvation:             0.000000
########## Receptor Hydrophobic:             0.000000
##########         Total Energy: -47.06
##########        Ligand Charge:            -1.000000
##########            Arbitrary:    +999.9990
##########     heavy atom count:   22
##########           pose count:    1
##########        Ligand Energy:             0.000000
# num electro vdwattr vdwrepu polsolv apolsol rdesolv rhydroe totalscore fullpol fullapo
#   1  -34.21   -3.02    3.14   10.78   -0.14    0.00    0.00     -23.45   31.25   -0.41
#   2   21.83   -1.48    0.49   -5.93   -0.04    0.00    0.00      14.87  -19.69   -0.13
#   3  -27.73   -2.01    1.36   11.28   -0.14    0.00    0.00     -17.24   29.63   -0.37
#   4   -2.49   -0.80    0.15    1.28   -0.09    0.00    0.00      -1.94    5.67   -0.40
#   5    0.84   -0.61    0.06    0.14   -0.07    0.00    0.00       0.35    0.64   -0.33
#   6   -4.20   -0.50    0.02    2.30    0.11    0.00    0.00      -2.26    9.95    0.48
#   7    1.43   -0.58    0.13   -0.70    0.00    0.00    0.00       0.27   -3.11    0.02
#   8   -2.12   -0.56    0.08    0.99    0.10    0.00    0.00      -1.51    5.02    0.52
#   9    0.15   -0.60    0.04   -0.07   -0.07    0.00    0.00      -0.55   -0.30   -0.33
#  10   -1.20   -0.86    0.27    0.18   -0.11    0.00    0.00      -1.72    0.80   -0.47
#  11   -1.67   -0.73    0.19    0.19   -0.09    0.00    0.00      -2.10    0.98   -0.44
#  12   -1.23   -0.65    0.05    0.31   -0.08    0.00    0.00      -1.60    1.42   -0.36
#  13   -0.01   -0.80    0.23   -0.02   -0.07    0.00    0.00      -0.68   -0.07   -0.24
#  14   -3.79   -1.12    0.20    1.30   -0.12    0.00    0.00      -3.53    4.13   -0.39
#  15    1.45   -1.50    0.38   -0.21   -0.32    0.00    0.00      -0.20   -0.62   -0.94
#  16   -5.43   -2.08    1.04    4.19    0.44    0.00    0.00      -1.84   11.14    1.17
#  17    0.98   -1.47    0.31   -0.35   -0.31    0.00    0.00      -0.84   -0.89   -0.78
#  18   -1.03   -1.67    0.44    0.76   -0.22    0.00    0.00      -1.71    1.68   -0.48
#  19   -0.59   -2.08    0.58    0.33   -0.25    0.00    0.00      -2.02    0.60   -0.47
#  20   -0.99   -3.02    1.51    0.51   -0.24    0.00    0.00      -2.23    1.00   -0.47
#  21   -0.90   -1.98    0.64    0.44   -0.20    0.00    0.00      -2.01    1.01   -0.47
#  22   -1.43   -1.29    0.25    0.93   -0.17    0.00    0.00      -1.71    2.47   -0.44
#  23    0.49   -0.09    0.01   -0.22   -0.03    0.00    0.00       0.16   -2.36   -0.28
#  24    0.45   -0.51    0.39   -0.45   -0.07    0.00    0.00      -0.19   -1.70   -0.28
#  25    0.84   -0.26    0.12   -0.38   -0.05    0.00    0.00       0.27   -2.08   -0.28
#  26    1.55   -0.16    0.06   -0.28   -0.03    0.00    0.00       1.13   -2.20   -0.27
#  27    3.25   -0.42    0.25   -0.59   -0.06    0.00    0.00       2.42   -2.56   -0.28
#  28    3.21   -0.30    0.14   -0.03   -0.04    0.00    0.00       2.97   -0.18   -0.24
#  29    2.68   -0.29    0.05   -0.81   -0.06    0.00    0.00       1.57   -3.24   -0.23
#  30    0.72   -0.10    0.03   -2.36    0.21    0.00    0.00      -1.51   -6.84    0.60
#  31    0.77   -0.31    0.04   -0.48   -0.09    0.00    0.00      -0.07   -1.42   -0.28
#  32    0.18   -0.37    0.04   -0.44   -0.14    0.00    0.00      -0.72   -0.88   -0.28
#  33    0.28   -1.05    0.98   -0.49   -0.16    0.00    0.00      -0.43   -0.87   -0.28
#  34    1.81   -0.37    0.08   -0.45   -0.09    0.00    0.00       0.98   -1.38   -0.27

@<TRIPOS>MOLECULE
       AVX17287_0       100
   34    37     0     0     0



@<TRIPOS>ATOM
      1 O1         14.0757   -22.4787    11.1626 O.co2      1          -0.6818
      2 C1         15.2679   -22.7416    11.2403 C.2        1           0.5374
      3 O2         15.7131   -23.7342    10.6806 O.co2      1          -0.6769
      4 C2         16.1677   -21.8604    12.0018 C.ar       1          -0.0863
      5 C3         16.3987   -22.0966    13.3637 C.ar       1           0.0447
      6 O3         15.9247   -23.0536    14.2083 O.3        1          -0.3001
      7 C4         16.8105   -23.0387    15.3433 C.3        1           0.2108
      8 O4         17.3124   -21.6894    15.3674 O.3        1          -0.3177
      9 C5         17.2521   -21.2561    14.0740 C.ar       1           0.0130
     10 C6         17.8671   -20.1942    13.4327 C.ar       1          -0.1155
     11 C7         17.6389   -19.9607    12.0863 C.ar       1          -0.1123
     12 C8         16.8016   -20.7854    11.3685 C.ar       1          -0.0493
     13 C9         16.5645   -20.5278     9.9027 C.3        1          -0.0004
     14 C10        17.7887   -19.8872     9.3009 C.2        1          -0.1731
     15 C11        17.8501   -18.6856     8.7055 C.2        1           0.0925
     16 N1         19.1278   -18.4398     8.2822 N.pl3      1          -0.5958
     17 C12        19.9402   -19.5042     8.6029 C.ar       1           0.0883
     18 C13        21.2922   -19.7695     8.4097 C.ar       1          -0.1308
     19 C14        21.8270   -20.9575     8.8571 C.ar       1          -0.1117
     20 C15        21.0301   -21.8951     9.5001 C.ar       1          -0.1546
     21 C16        19.7002   -21.6551     9.7003 C.ar       1          -0.0700
     22 C17        19.1384   -20.4549     9.2602 C.ar       1          -0.0906
     23 H1         16.2629   -23.2603    16.2594 H          1           0.1234
     24 H2         17.6258   -23.7483    15.2022 H          1           0.0764
     25 H3         18.5286   -19.5437    13.9857 H          1           0.1252
     26 H4         18.1234   -19.1294    11.5959 H          1           0.1290
     27 H5         16.3618   -21.4714     9.3961 H          1           0.0752
     28 H6         15.7103   -19.8612     9.7845 H          1           0.0899
     29 H7         17.0147   -18.0130     8.5788 H          1           0.1838
     30 H8         19.4181   -17.6355     7.8242 H          1           0.4131
     31 H9         21.9202   -19.0467     7.9103 H          1           0.1137
     32 H10        22.8767   -21.1618     8.7058 H          1           0.1176
     33 H11        21.4650   -22.8217     9.8444 H          1           0.1158
     34 H12        19.0865   -22.3891    10.2014 H          1           0.1175
@<TRIPOS>BOND
     1    1    2 1
     2    2    3 2
     3    2    4 1
     4    4   12 ar
     5    4    5 ar
     6    5    9 ar
     7    5    6 1
     8    6    7 1
     9    7    8 1
    10    7   23 1
    11    7   24 1
    12    8    9 1
    13    9   10 ar
    14   10   11 ar
    15   10   25 1
    16   11   12 ar
    17   11   26 1
    18   12   13 1
    19   13   14 1
    20   13   27 1
    21   13   28 1
    22   14   22 1
    23   14   15 2
    24   15   16 1
    25   15   29 1
    26   16   17 1
    27   16   30 1
    28   17   22 ar
    29   17   18 ar
    30   18   19 ar
    31   18   31 1
    32   19   20 ar
    33   19   32 1
    34   20   21 ar
    35   20   33 1
    36   21   22 ar
    37   21   34 1
