AVX17560_0, 3
##########                 Name:           AVX17560_0
##########          Protonation:                  100
##########               SMILES:   CC(C)C[C@@H](Cc1ccc2c(c1C(=O)[O-])OCO2)CNC(=O)CCC[NH3+]
##########            Long Name:   aniumylbutanoylamino)methyl]-4-methyl-pentyl]-1,3-benzodioxole-4-carboxylate
##########          FlexRecCode: 1
##########               Number:                  507
##########   Ligand Source File: /raid1/people/rgc/Examples/sampl4/screening/ligands/build_1//sampl4-hivint-00000
##########           GlobalRank: 134
##########                 Rank:                    1
##########               Setnum:                    1
##########             Matchnum:                 6223
##########                Cloud:                    1
##########        Electrostatic:           -19.928110
##########        Van der Waals:            -9.630587
##########  Ligand Polar Desolv:            11.575707
########## Ligand Apolar Desolv:            -1.461687
##########      Internal Energy:             0.000000
##########      Receptor Energy: 0.0
########## Receptor Desolvation:             0.000000
########## Receptor Hydrophobic:             0.000000
##########         Total Energy: -19.44
##########        Ligand Charge:             0.000000
##########            Arbitrary:    +999.9990
##########     heavy atom count:   26
##########           pose count:    1
##########        Ligand Energy:             0.000000
# num electro vdwattr vdwrepu polsolv apolsol rdesolv rhydroe totalscore fullpol fullapo
#   1   -0.65   -1.15    0.47    0.47   -0.05    0.00    0.00      -0.92    1.51   -0.17
#   2   -1.20   -0.47    0.04    0.21   -0.04    0.00    0.00      -1.46    0.85   -0.15
#   3   -1.09   -0.45    0.04    0.15   -0.04    0.00    0.00      -1.40    0.63   -0.18
#   4   -1.21   -0.34    0.05    0.05   -0.03    0.00    0.00      -1.47    0.32   -0.17
#   5   -1.27   -0.36    0.03    0.10   -0.02    0.00    0.00      -1.52    0.49   -0.09
#   6    1.18   -0.28    0.02   -0.10   -0.06    0.00    0.00       0.75   -0.57   -0.37
#   7   -6.86   -0.55    0.23   -0.05    0.27    0.00    0.00      -6.96   -0.42    2.18
#   8    2.27   -0.24    0.03    0.15   -0.06    0.00    0.00       2.15    1.67   -0.66
#   9   -1.74   -0.18    0.01    0.06    0.03    0.00    0.00      -1.82    0.63    0.38
#  10   -0.35   -0.15    0.02   -0.14   -0.02    0.00    0.00      -0.64   -1.71   -0.24
#  11   -0.22   -0.06    0.00   -0.10   -0.01    0.00    0.00      -0.39   -2.57   -0.20
#  12   -0.03   -0.08    0.00    0.05   -0.02    0.00    0.00      -0.09    0.95   -0.49
#  13   -3.18   -0.18    0.01   -1.61    0.07    0.00    0.00      -4.89  -19.69    0.86
#  14    3.33   -0.01    0.00    1.12    0.04    0.00    0.00       4.49   14.60    0.58
#  15    0.84    0.00    0.00    0.44    0.02    0.00    0.00       1.29   14.94    0.58
#  16    2.97    0.00    0.00    0.63    0.02    0.00    0.00       3.62   16.41    0.60
#  17   -2.14   -0.57    0.19    0.20   -0.04    0.00    0.00      -2.35    0.92   -0.17
#  18   -0.93   -0.70    0.04    0.10   -0.08    0.00    0.00      -1.57    0.37   -0.30
#  19   -2.25   -1.38    0.23    0.26   -0.13    0.00    0.00      -3.28    0.75   -0.39
#  20   -1.31   -2.20    0.97    0.18   -0.19    0.00    0.00      -2.54    0.46   -0.47
#  21   -0.05   -1.47    0.67    0.07   -0.12    0.00    0.00      -0.90    0.20   -0.33
#  22   -3.69   -1.28    0.35    1.48    0.21    0.00    0.00      -2.94    3.68    0.52
#  23    2.78   -1.15    0.27   -0.88    0.01    0.00    0.00       1.02   -2.17    0.02
#  24   -4.39   -0.85    0.08    2.33    0.11    0.00    0.00      -2.72    7.42    0.34
#  25    1.48   -0.85    0.09   -0.08   -0.09    0.00    0.00       0.56   -0.27   -0.32
#  26   -3.12   -0.69    0.05    1.01   -0.09    0.00    0.00      -2.83    4.40   -0.41
#  27   15.32   -0.99    0.32   -3.10   -0.03    0.00    0.00      11.52  -13.74   -0.15
#  28  -27.06   -2.77    4.38    5.94   -0.07    0.00    0.00     -19.59   17.40   -0.21
#  29  -12.46   -0.58    0.17    4.18   -0.09    0.00    0.00      -8.79   26.58   -0.56
#  30    0.34   -0.32    0.06    0.01   -0.08    0.00    0.00       0.00    0.02   -0.28
#  31    0.08   -0.24    0.03   -0.04   -0.03    0.00    0.00      -0.20   -0.20   -0.16
#  32   -0.02   -1.33    4.14   -0.22   -0.10    0.00    0.00       2.47   -0.65   -0.28
#  33    2.16   -0.16    0.02   -0.03   -0.03    0.00    0.00       1.95   -0.21   -0.20
#  34    0.35   -0.12    0.01   -0.03   -0.04    0.00    0.00       0.18   -0.20   -0.28
#  35    0.32   -0.28    0.08   -0.06   -0.06    0.00    0.00      -0.01   -0.25   -0.28
#  36    0.14   -0.08    0.00   -0.01   -0.02    0.00    0.00       0.04   -0.17   -0.28
#  37    0.72   -0.23    0.21   -0.03   -0.04    0.00    0.00       0.63   -0.22   -0.28
#  38    0.29   -0.06    0.00    0.00   -0.01    0.00    0.00       0.22   -0.08   -0.24
#  39    1.06   -0.16    0.01   -0.04   -0.03    0.00    0.00       0.83   -0.28   -0.19
#  40    0.45   -0.07    0.00   -0.01   -0.01    0.00    0.00       0.36   -0.14   -0.22
#  41    0.67   -0.11    0.01   -0.02   -0.03    0.00    0.00       0.51   -0.20   -0.28
#  42    5.93   -0.04    0.01    0.14    0.08    0.00    0.00       6.12    0.96    0.51
#  43    0.34   -0.13    0.07    0.22   -0.03    0.00    0.00       0.47    2.38   -0.28
#  44    0.22   -0.03    0.00    0.05   -0.01    0.00    0.00       0.23    1.75   -0.28
#  45    0.14   -0.01    0.00    0.01    0.00    0.00    0.00       0.14    0.96   -0.28
#  46    0.11   -0.01    0.00    0.02    0.00    0.00    0.00       0.11    1.35   -0.28
#  47    0.22   -0.02    0.00    0.08   -0.01    0.00    0.00       0.29    4.49   -0.28
#  48    0.58   -0.03    0.00    0.12   -0.01    0.00    0.00       0.66    3.97   -0.28
#  49    4.18   -0.16    0.01   -0.15   -0.02    0.00    0.00       3.87   -1.03   -0.14
#  50    1.96   -0.61    1.90   -0.14   -0.05    0.00    0.00       3.07   -0.79   -0.28
#  51    1.63   -0.42    0.12   -0.19   -0.09    0.00    0.00       1.06   -0.61   -0.28
#  52    0.86   -0.85    0.66   -0.31   -0.12    0.00    0.00       0.24   -0.73   -0.28
#  53    1.01   -0.41    0.14   -0.44   -0.09    0.00    0.00       0.21   -1.29   -0.28
#  54    1.38   -0.77    0.73   -0.44   -0.13    0.00    0.00       0.77   -0.98   -0.28

@<TRIPOS>MOLECULE
       AVX17560_0       100
   54    55     0     0     0



@<TRIPOS>ATOM
      1 C1         15.8543   -24.8529    14.6198 C.3        1          -0.1367
      2 C2         14.7079   -23.8517    14.4630 C.3        1          -0.0911
      3 C3         13.5432   -24.2647    15.3650 C.3        1          -0.1464
      4 C4         15.1917   -22.4561    14.8618 C.3        1          -0.0979
      5 C5         16.3565   -22.0431    13.9600 C.3        1          -0.0830
      6 C6         16.8403   -20.6473    14.3587 C.3        1           0.1146
      7 N1         15.7428   -19.6887    14.2087 N.am       1          -0.7143
      8 C7         15.9385   -18.3885    14.5045 C.2        1           0.5056
      9 O1         17.0234   -18.0122    14.8950 O.2        1          -0.5485
     10 C8         14.8096   -17.4024    14.3501 C.3        1          -0.1422
     11 C9         15.3794   -16.0243    14.0073 C.3        1          -0.1368
     12 C10        16.1654   -16.1089    12.6974 C.3        1          -0.0097
     13 N2         15.2725   -16.5518    11.6183 N.4        1          -0.6369
     14 H1         14.8968   -17.4606    11.8444 H          1           0.4363
     15 H2         14.5166   -15.8915    11.5149 H          1           0.4358
     16 H3         15.7909   -16.6075    10.7544 H          1           0.4370
     17 C11        15.8914   -22.0245    12.5025 C.3        1          -0.0759
     18 C12        17.0387   -21.6177    11.6141 C.ar       1          -0.0391
     19 C13        18.1876   -22.3764    11.5817 C.ar       1          -0.1369
     20 C14        19.2468   -22.0098    10.7674 C.ar       1          -0.1032
     21 C15        19.1632   -20.8764     9.9765 C.ar       1          -0.0033
     22 O2         20.0515   -20.3134     9.1057 O.3        1          -0.3187
     23 C16        19.2735   -19.4157     8.2918 C.3        1           0.2053
     24 O3         18.1713   -19.0507     9.1433 O.3        1          -0.2770
     25 C17        18.0085   -20.0983     9.9976 C.ar       1           0.0757
     26 C18        16.9349   -20.4721    10.8171 C.ar       1          -0.1233
     27 C19        15.7071   -19.6611    10.8438 C.2        1           0.5203
     28 O4         14.7941   -19.9080    10.0679 O.co2      1          -0.6611
     29 O5         15.5995   -18.7401    11.6419 O.co2      1          -0.6714
     30 H4         16.6840   -24.5587    13.9772 H          1           0.0444
     31 H5         16.1858   -24.8660    15.6580 H          1           0.0852
     32 H6         15.5097   -25.8472    14.3357 H          1           0.0236
     33 H7         14.3766   -23.8385    13.4247 H          1           0.0916
     34 H8         12.7265   -23.5515    15.2533 H          1           0.0423
     35 H9         13.1986   -25.2591    15.0811 H          1           0.0460
     36 H10        13.8746   -24.2779    16.4033 H          1           0.0509
     37 H11        14.3752   -21.7428    14.7501 H          1           0.0544
     38 H12        15.5231   -22.4694    15.9001 H          1           0.0465
     39 H13        17.1732   -22.7564    14.0716 H          1           0.0942
     40 H14        17.1718   -20.6607    15.3970 H          1           0.0743
     41 H15        17.6702   -20.3532    13.7162 H          1           0.0651
     42 H16        14.8752   -19.9898    13.8963 H          1           0.4028
     43 H17        14.1470   -17.7310    13.5494 H          1           0.1030
     44 H18        14.2496   -17.3421    15.2834 H          1           0.1038
     45 H19        14.5627   -15.3111    13.8956 H          1           0.0958
     46 H20        16.0418   -15.6958    14.8080 H          1           0.0954
     47 H21        16.5713   -15.1272    12.4532 H          1           0.1345
     48 H22        16.9821   -16.8221    12.8092 H          1           0.1349
     49 H23        15.5467   -23.0188    12.2183 H          1           0.1361
     50 H24        15.0748   -21.3112    12.3908 H          1           0.0494
     51 H25        18.2635   -23.2622    12.1949 H          1           0.1267
     52 H26        20.1434   -22.6116    10.7498 H          1           0.1235
     53 H27        19.8591   -18.5359     8.0248 H          1           0.1247
     54 H28        18.9143   -19.9239     7.3969 H          1           0.0736
@<TRIPOS>BOND
     1    1    2 1
     2    1   30 1
     3    1   31 1
     4    1   32 1
     5    2    3 1
     6    2    4 1
     7    2   33 1
     8    3   34 1
     9    3   35 1
    10    3   36 1
    11    4    5 1
    12    4   37 1
    13    4   38 1
    14    5    6 1
    15    5   17 1
    16    5   39 1
    17    6    7 1
    18    6   40 1
    19    6   41 1
    20    7    8 am
    21    7   42 1
    22    8    9 2
    23    8   10 1
    24   10   11 1
    25   10   43 1
    26   10   44 1
    27   11   12 1
    28   11   45 1
    29   11   46 1
    30   12   13 1
    31   12   47 1
    32   12   48 1
    33   13   14 1
    34   13   15 1
    35   13   16 1
    36   17   18 1
    37   17   49 1
    38   17   50 1
    39   18   26 ar
    40   18   19 ar
    41   19   20 ar
    42   19   51 1
    43   20   21 ar
    44   20   52 1
    45   21   25 ar
    46   21   22 1
    47   22   23 1
    48   23   24 1
    49   23   53 1
    50   23   54 1
    51   24   25 1
    52   25   26 ar
    53   26   27 1
    54   27   28 1
    55   27   29 2
