AVX17377_0, 3
##########                 Name:           AVX17377_0
##########          Protonation:                  100
##########               SMILES:   c1ccc2c(c1)CC(=O)N2Cc3ccc4c(c3C(=O)[O-])OCO4
##########            Long Name:   5-[(2-oxoindolin-1-yl)methyl]-1,3-benzodioxole-4-carboxylate
##########          FlexRecCode: 1
##########               Number:                  232
##########   Ligand Source File: /raid1/people/rgc/Examples/sampl4/screening/ligands/build_1//sampl4-hivint-00000
##########           GlobalRank: 24
##########                 Rank:                    1
##########               Setnum:                   11
##########             Matchnum:                 7236
##########                Cloud:                    1
##########        Electrostatic:           -55.000919
##########        Van der Waals:            -7.527067
##########  Ligand Polar Desolv:            21.166277
########## Ligand Apolar Desolv:            -2.322119
##########      Internal Energy:             0.000000
##########      Receptor Energy: 0.0
########## Receptor Desolvation:             0.000000
########## Receptor Hydrophobic:             0.000000
##########         Total Energy: -43.68
##########        Ligand Charge:            -1.000000
##########            Arbitrary:    +999.9990
##########     heavy atom count:   23
##########           pose count:    1
##########        Ligand Energy:             0.000000
# num electro vdwattr vdwrepu polsolv apolsol rdesolv rhydroe totalscore fullpol fullapo
#   1  -33.20   -4.61   12.62   11.85   -0.13    0.00    0.00     -13.48   28.40   -0.32
#   2   22.41   -1.90    0.94   -6.35   -0.06    0.00    0.00      15.04  -18.64   -0.17
#   3  -33.57   -3.29    5.05   10.37   -0.19    0.00    0.00     -21.62   31.08   -0.56
#   4   -3.63   -1.05    0.12    2.11   -0.13    0.00    0.00      -2.58    6.44   -0.41
#   5    2.49   -1.21    0.15   -0.37   -0.12    0.00    0.00       0.93   -0.98   -0.32
#   6  -11.44   -2.04    0.79    3.98    0.15    0.00    0.00      -8.55    9.15    0.34
#   7    6.03   -1.37    0.63   -1.26    0.01    0.00    0.00       4.04   -2.92    0.02
#   8   -5.92   -1.24    0.16    2.13    0.23    0.00    0.00      -4.64    4.79    0.52
#   9    0.05   -1.45    0.25   -0.15   -0.13    0.00    0.00      -1.43   -0.38   -0.33
#  10   -1.06   -2.74    1.29    0.23   -0.18    0.00    0.00      -2.47    0.59   -0.47
#  11   -1.37   -2.29    0.86    0.65   -0.16    0.00    0.00      -2.30    1.75   -0.42
#  12   -1.07   -1.04    0.09    0.53   -0.13    0.00    0.00      -1.63    1.60   -0.41
#  13    2.24   -0.68    0.08   -1.51   -0.09    0.00    0.00       0.04   -5.13   -0.32
#  14   -4.37   -0.70    0.05    2.41    0.21    0.00    0.00      -2.40   10.25    0.91
#  15    4.56   -0.41    0.02   -1.20   -0.09    0.00    0.00       2.88   -8.06   -0.59
#  16   -6.97   -0.54    0.17    1.84    0.06    0.00    0.00      -5.44   12.76    0.42
#  17   -0.37   -0.22    0.02    0.06   -0.03    0.00    0.00      -0.56    0.50   -0.30
#  18   -0.20   -0.77    0.25    0.16   -0.07    0.00    0.00      -0.63    1.01   -0.43
#  19   -0.04   -0.80    0.29    0.02   -0.07    0.00    0.00      -0.61    0.11   -0.47
#  20   -0.11   -1.04    0.31    0.09   -0.11    0.00    0.00      -0.86    0.37   -0.47
#  21    0.05   -1.78    0.53    0.25   -0.16    0.00    0.00      -1.11    0.74   -0.47
#  22    0.24   -2.39    1.19    0.85   -0.15    0.00    0.00      -0.26    2.49   -0.45
#  23    0.42   -1.14    0.31   -0.23   -0.17    0.00    0.00      -0.82   -0.97   -0.70
#  24    3.81   -1.04    2.08   -1.07   -0.13    0.00    0.00       3.65   -2.31   -0.28
#  25    2.08   -0.28    0.08   -0.35   -0.06    0.00    0.00       1.47   -1.69   -0.28
#  26    0.29   -1.32    2.50   -1.10   -0.13    0.00    0.00       0.24   -2.43   -0.28
#  27    0.88   -0.84    0.63   -1.05   -0.08    0.00    0.00      -0.46   -2.74   -0.21
#  28    2.23   -0.16    0.01   -0.31   -0.03    0.00    0.00       1.74   -2.01   -0.22
#  29    0.70   -0.51    0.33   -0.36   -0.07    0.00    0.00       0.10   -1.23   -0.25
#  30    0.33   -0.07    0.01   -0.07   -0.02    0.00    0.00       0.17   -0.98   -0.28
#  31    0.26   -0.03    0.00   -0.02   -0.01    0.00    0.00       0.21   -0.89   -0.28
#  32    0.08   -0.07    0.01   -0.01   -0.02    0.00    0.00      -0.02   -0.10   -0.28
#  33    0.11   -0.13    0.01   -0.03   -0.04    0.00    0.00      -0.07   -0.22   -0.28
#  34   -0.11   -0.41    0.08   -0.39   -0.10    0.00    0.00      -0.94   -1.04   -0.28
#  35   -0.83   -0.97    1.12   -0.52   -0.10    0.00    0.00      -1.31   -1.36   -0.27

@<TRIPOS>MOLECULE
       AVX17377_0       100
   35    38     0     0     0



@<TRIPOS>ATOM
      1 O1         14.3905   -24.5555    10.7772 O.co2      1          -0.6814
      2 C1         14.7433   -23.4716    11.2216 C.2        1           0.5222
      3 O2         13.9085   -22.6151    11.4793 O.co2      1          -0.6669
      4 C2         16.1714   -23.2003    11.4519 C.ar       1          -0.1169
      5 C3         16.9524   -22.6298    10.4379 C.ar       1           0.0796
      6 O3         16.6436   -22.2384     9.1710 O.3        1          -0.2761
      7 C4         17.7165   -21.3685     8.7641 C.3        1           0.2050
      8 O4         18.8401   -21.8258     9.5399 O.3        1          -0.3173
      9 C5         18.3027   -22.3775    10.6674 C.ar       1           0.0027
     10 C6         18.8652   -22.6902    11.8933 C.ar       1          -0.0989
     11 C7         18.0929   -23.2541    12.8959 C.ar       1          -0.1229
     12 C8         16.7552   -23.5053    12.6866 C.ar       1          -0.0587
     13 C9         15.9214   -24.1129    13.7852 C.3        1           0.1724
     14 N1         16.2119   -23.4346    15.0508 N.am       1          -0.5493
     15 C10        16.0187   -22.1211    15.2582 C.2        1           0.5197
     16 O5         15.5879   -21.3207    14.4553 O.2        1          -0.4955
     17 C11        16.4400   -21.8283    16.6825 C.3        1          -0.1133
     18 C12        16.8883   -23.1694    17.2162 C.ar       1          -0.1511
     19 C13        17.3813   -23.5745    18.4361 C.ar       1          -0.0686
     20 C14        17.7163   -24.9018    18.6389 C.ar       1          -0.1498
     21 C15        17.5543   -25.8165    17.6143 C.ar       1          -0.0840
     22 C16        17.0611   -25.4132    16.3910 C.ar       1          -0.1346
     23 C17        16.7155   -24.0795    16.1810 C.ar       1           0.1577
     24 H1         17.9164   -21.4796     7.6983 H          1           0.1248
     25 H2         17.4814   -20.3318     9.0047 H          1           0.0764
     26 H3         19.9125   -22.4937    12.0689 H          1           0.1265
     27 H4         18.5419   -23.4945    13.8482 H          1           0.1217
     28 H5         14.8645   -23.9972    13.5453 H          1           0.1149
     29 H6         16.1590   -25.1726    13.8780 H          1           0.1169
     30 H7         17.2648   -21.1159    16.6980 H          1           0.1196
     31 H8         15.5965   -21.4501    17.2602 H          1           0.1190
     32 H9         17.5067   -22.8572    19.2338 H          1           0.1247
     33 H10        18.1036   -25.2225    19.5948 H          1           0.1250
     34 H11        17.8157   -26.8523    17.7729 H          1           0.1276
     35 H12        16.9377   -26.1334    15.5957 H          1           0.1288
@<TRIPOS>BOND
     1    1    2 1
     2    2    3 2
     3    2    4 1
     4    4   12 ar
     5    4    5 ar
     6    5    9 ar
     7    5    6 1
     8    6    7 1
     9    7    8 1
    10    7   24 1
    11    7   25 1
    12    8    9 1
    13    9   10 ar
    14   10   11 ar
    15   10   26 1
    16   11   12 ar
    17   11   27 1
    18   12   13 1
    19   13   14 1
    20   13   28 1
    21   13   29 1
    22   14   23 1
    23   14   15 am
    24   15   16 2
    25   15   17 1
    26   17   18 1
    27   17   30 1
    28   17   31 1
    29   18   23 ar
    30   18   19 ar
    31   19   20 ar
    32   19   32 1
    33   20   21 ar
    34   20   33 1
    35   21   22 ar
    36   21   34 1
    37   22   23 ar
    38   22   35 1
