AVX101140_0, 3
##########                 Name:          AVX101140_0
##########          Protonation:                  100
##########               SMILES:   c1cc2c(cc1Br)C(=O)C(=O)N2Cc3ccc4c(c3C(=O)[O-])OCCO4
##########            Long Name:   mo-2,3-dioxo-indolin-1-yl)methyl]-2,3-dihydro-1,4-benzodioxine-5-carboxylate
##########          FlexRecCode: 1
##########               Number:                  171
##########   Ligand Source File: /raid1/people/rgc/Examples/sampl4/screening/ligands/build_1//sampl4-hivint-00000
##########           GlobalRank: 47
##########                 Rank:                    1
##########               Setnum:                    8
##########             Matchnum:                 7419
##########                Cloud:                    1
##########        Electrostatic:           -33.100548
##########        Van der Waals:           -26.830803
##########  Ligand Polar Desolv:            22.369343
########## Ligand Apolar Desolv:            -3.259724
##########      Internal Energy:             0.000000
##########      Receptor Energy: 0.0
########## Receptor Desolvation:             0.000000
########## Receptor Hydrophobic:             0.000000
##########         Total Energy: -40.82
##########        Ligand Charge:            -1.000000
##########            Arbitrary:    +999.9990
##########     heavy atom count:   26
##########           pose count:    1
##########        Ligand Energy:             0.000000
# num electro vdwattr vdwrepu polsolv apolsol rdesolv rhydroe totalscore fullpol fullapo
#   1  -27.73   -1.79    0.75   10.32   -0.13    0.00    0.00     -18.58   26.19   -0.33
#   2   16.24   -1.57    0.42   -6.60   -0.06    0.00    0.00       8.41  -17.35   -0.17
#   3  -18.15   -2.16    0.59   14.14   -0.29    0.00    0.00      -5.87   28.60   -0.59
#   4   -2.90   -0.90    0.06    1.93   -0.13    0.00    0.00      -1.94    6.14   -0.41
#   5    1.20   -0.96    0.09   -0.48   -0.09    0.00    0.00      -0.24   -1.65   -0.30
#   6   -1.73   -1.30    0.34    2.66    0.08    0.00    0.00       0.05    8.51    0.27
#   7    0.00   -1.21    0.37    0.06   -0.04    0.00    0.00      -0.81    0.20   -0.14
#   8    0.05   -0.51    0.09   -0.05   -0.03    0.00    0.00      -0.44   -0.24   -0.14
#   9   -1.62   -1.10    0.56    0.94    0.15    0.00    0.00      -1.07    4.24    0.68
#  10    0.24   -0.95    0.17   -0.17   -0.08    0.00    0.00      -0.79   -0.66   -0.30
#  11   -1.20   -0.82    0.09    0.26   -0.12    0.00    0.00      -1.79    1.01   -0.46
#  12   -2.15   -0.74    0.08    0.51   -0.11    0.00    0.00      -2.41    2.00   -0.42
#  13   -1.78   -0.77    0.04    0.44   -0.12    0.00    0.00      -2.19    1.53   -0.41
#  14    6.01   -0.80    0.13   -1.56   -0.11    0.00    0.00       3.67   -4.48   -0.33
#  15  -15.03   -0.98    0.10    2.78    0.28    0.00    0.00     -12.85    9.03    0.92
#  16   12.72   -0.95    0.14   -2.17   -0.15    0.00    0.00       9.58   -8.35   -0.58
#  17  -13.28   -1.07    0.27    3.07    0.12    0.00    0.00     -10.90   11.30    0.43
#  18    6.04   -0.88    0.09   -1.61   -0.10    0.00    0.00       3.55   -5.82   -0.35
#  19   -3.45   -0.73    0.06    1.48    0.11    0.00    0.00      -2.53    5.93    0.43
#  20   -3.40   -1.11    0.16    0.79   -0.15    0.00    0.00      -3.71    2.34   -0.44
#  21    4.29   -1.17    0.16   -0.80   -0.27    0.00    0.00       2.22   -2.17   -0.72
#  22   -1.97   -1.95    0.57    0.60   -0.20    0.00    0.00      -2.95    1.34   -0.45
#  23   -0.10   -2.30    0.94   -0.09   -0.23    0.00    0.00      -1.77   -0.19   -0.46
#  24   -1.14   -1.66    0.47    0.32   -0.14    0.00    0.00      -2.15    0.70   -0.30
#  25   -0.21   -4.30    0.95   -0.03   -0.54    0.00    0.00      -4.12   -0.07   -1.10
#  26    0.22   -1.39    0.27   -0.13   -0.17    0.00    0.00      -1.21   -0.34   -0.46
#  27   -0.58   -0.38    0.12   -0.51   -0.07    0.00    0.00      -1.42   -1.97   -0.28
#  28   -0.18   -1.07    1.79   -0.44   -0.10    0.00    0.00       0.00   -1.20   -0.28
#  29    0.24   -0.06    0.00   -0.04   -0.01    0.00    0.00       0.13   -0.85   -0.28
#  30    0.10   -0.14    0.03   -0.15   -0.03    0.00    0.00      -0.20   -1.26   -0.28
#  31    0.95   -0.17    0.02   -0.43   -0.05    0.00    0.00       0.32   -2.34   -0.28
#  32    1.69   -0.16    0.04   -0.32   -0.03    0.00    0.00       1.22   -2.39   -0.21
#  33    4.06   -0.29    0.03   -0.82   -0.07    0.00    0.00       2.91   -2.43   -0.22
#  34    5.83   -0.57    0.88   -0.37   -0.06    0.00    0.00       5.71   -1.51   -0.25
#  35    2.21   -0.61    0.42   -0.58   -0.10    0.00    0.00       1.33   -1.51   -0.27
#  36    0.60   -0.56    0.21   -0.33   -0.14    0.00    0.00      -0.22   -0.65   -0.28
#  37    0.80   -0.32    0.09   -0.25   -0.08    0.00    0.00       0.24   -0.91   -0.28

@<TRIPOS>MOLECULE
      AVX101140_0       100
   37    40     0     0     0



@<TRIPOS>ATOM
      1 O1         14.3900   -24.3229    11.4110 O.co2      1          -0.6868
      2 C1         15.5991   -24.4177    11.5715 C.2        1           0.5238
      3 O2         16.2120   -25.3483    11.0666 O.co2      1          -0.6590
      4 C2         16.3173   -23.4090    12.3669 C.ar       1          -0.1255
      5 C3         16.4864   -23.5898    13.7477 C.ar       1           0.0909
      6 O3         15.9759   -24.6977    14.3435 O.3        1          -0.2561
      7 C4         16.4840   -25.0235    15.6418 C.3        1           0.0131
      8 C5         16.5068   -23.7413    16.4847 C.3        1           0.0202
      9 O4         17.3504   -22.7886    15.8285 O.3        1          -0.3129
     10 C6         17.1688   -22.6321    14.4883 C.ar       1           0.0245
     11 C7         17.6738   -21.5039    13.8612 C.ar       1          -0.1102
     12 C8         17.5053   -21.3238    12.4984 C.ar       1          -0.1302
     13 C9         16.8393   -22.2678    11.7487 C.ar       1          -0.0716
     14 C10        16.6679   -22.0685    10.2647 C.3        1           0.1736
     15 N1         17.2986   -20.8081     9.8651 N.am       1          -0.5425
     16 C11        16.6707   -19.6197     9.8464 C.2        1           0.4872
     17 O5         15.5141   -19.4150    10.1500 O.2        1          -0.4322
     18 C12        17.6606   -18.5930     9.3823 C.2        1           0.3951
     19 O6         17.4777   -17.4026     9.2332 O.2        1          -0.3741
     20 C13        18.9053   -19.3482     9.1470 C.ar       1          -0.2442
     21 C14        18.6271   -20.6884     9.4619 C.ar       1           0.2275
     22 C15        19.6361   -21.6335     9.3343 C.ar       1          -0.1414
     23 C16        20.8949   -21.2541     8.9064 C.ar       1          -0.0115
     24 C17        21.1683   -19.9311     8.6002 C.ar       1          -0.1410
     25 Br1        22.8971   -19.4343     8.0167 Br         1          -0.0427
     26 C18        20.1767   -18.9760     8.7117 C.ar       1           0.0241
     27 H1         15.8376   -25.7628    16.1146 H          1           0.1167
     28 H2         17.4945   -25.4220    15.5515 H          1           0.0708
     29 H3         15.4969   -23.3400    16.5708 H          1           0.0729
     30 H4         16.9017   -23.9604    17.4766 H          1           0.1151
     31 H5         18.2017   -20.7599    14.4393 H          1           0.1267
     32 H6         17.9028   -20.4408    12.0201 H          1           0.1120
     33 H7         17.1370   -22.8949     9.7308 H          1           0.1225
     34 H8         15.6056   -22.0360    10.0228 H          1           0.1223
     35 H9         19.4370   -22.6685     9.5703 H          1           0.1503
     36 H10        21.6731   -21.9968     8.8103 H          1           0.1474
     37 H11        20.3881   -17.9440     8.4739 H          1           0.1452
@<TRIPOS>BOND
     1    1    2 1
     2    2    3 2
     3    2    4 1
     4    4   13 ar
     5    4    5 ar
     6    5   10 ar
     7    5    6 1
     8    6    7 1
     9    7    8 1
    10    7   27 1
    11    7   28 1
    12    8    9 1
    13    8   29 1
    14    8   30 1
    15    9   10 1
    16   10   11 ar
    17   11   12 ar
    18   11   31 1
    19   12   13 ar
    20   12   32 1
    21   13   14 1
    22   14   15 1
    23   14   33 1
    24   14   34 1
    25   15   21 1
    26   15   16 am
    27   16   17 2
    28   16   18 1
    29   18   19 2
    30   18   20 1
    31   20   26 ar
    32   20   21 ar
    33   21   22 ar
    34   22   23 ar
    35   22   35 1
    36   23   24 ar
    37   23   36 1
    38   24   25 1
    39   24   26 ar
    40   26   37 1
