AVX17679_0, 3
##########                 Name:           AVX17679_0
##########          Protonation:                  100
##########               SMILES:   c1ccc2c(c1)c(no2)CC(=O)[O-]
##########            Long Name:   2-(1,2-benzoxazol-3-yl)acetate
##########          FlexRecCode: 1
##########               Number:                   13
##########   Ligand Source File: /raid1/people/rgc/Examples/sampl4/screening/ligands/build_1//sampl4-hivint-00000
##########           GlobalRank: 35
##########                 Rank:                    1
##########               Setnum:                    1
##########             Matchnum:                 4814
##########                Cloud:                    1
##########        Electrostatic:           -48.331146
##########        Van der Waals:           -10.260496
##########  Ligand Polar Desolv:            18.508562
########## Ligand Apolar Desolv:            -1.617128
##########      Internal Energy:             0.000000
##########      Receptor Energy: 0.0
########## Receptor Desolvation:             0.000000
########## Receptor Hydrophobic:             0.000000
##########         Total Energy: -41.7
##########        Ligand Charge:            -1.000000
##########            Arbitrary:    +999.9990
##########     heavy atom count:   13
##########           pose count:    1
##########        Ligand Energy:             0.000000
# num electro vdwattr vdwrepu polsolv apolsol rdesolv rhydroe totalscore fullpol fullapo
#   1  -30.86   -2.35    1.83   10.98   -0.16    0.00    0.00     -20.55   28.74   -0.41
#   2   21.09   -1.61    0.64   -4.87   -0.05    0.00    0.00      15.20  -16.02   -0.16
#   3  -31.74   -2.07    1.20    9.61   -0.15    0.00    0.00     -23.16   28.18   -0.43
#   4   -4.21   -0.68    0.36    0.48   -0.06    0.00    0.00      -4.11    2.29   -0.28
#   5    5.70   -0.88    0.22   -0.79   -0.15    0.00    0.00       4.09   -3.54   -0.66
#   6   -8.94   -1.17    0.52    2.23    0.27    0.00    0.00      -7.08    9.82    1.20
#   7   -2.29   -0.63    0.04    0.71   -0.02    0.00    0.00      -2.19    2.91   -0.09
#   8    1.63   -0.88    0.10   -0.08   -0.09    0.00    0.00       0.67   -0.30   -0.35
#   9   -1.85   -1.41    0.30    0.50   -0.16    0.00    0.00      -2.62    1.46   -0.48
#  10   -0.92   -1.45    0.26    0.00   -0.18    0.00    0.00      -2.29   -0.01   -0.47
#  11   -2.27   -1.44    0.37    0.37   -0.18    0.00    0.00      -3.15    0.94   -0.47
#  12   -0.57   -1.11    0.20    0.45   -0.16    0.00    0.00      -1.19    1.30   -0.47
#  13   -4.19   -0.75    0.06    1.32   -0.11    0.00    0.00      -3.67    5.30   -0.44
#  14    3.18   -0.52    1.54   -0.57   -0.05    0.00    0.00       3.59   -3.46   -0.28
#  15    1.97   -0.11    0.00   -0.27   -0.03    0.00    0.00       1.56   -2.84   -0.28
#  16    1.04   -0.51    0.44   -0.48   -0.08    0.00    0.00       0.41   -1.63   -0.28
#  17    1.33   -0.37    0.08   -0.19   -0.10    0.00    0.00       0.75   -0.53   -0.28
#  18    1.35   -0.34    0.07   -0.37   -0.09    0.00    0.00       0.62   -1.09   -0.28
#  19    2.22   -0.24    0.03   -0.51   -0.07    0.00    0.00       1.43   -2.06   -0.28

@<TRIPOS>MOLECULE
       AVX17679_0       100
   19    20     0     0     0



@<TRIPOS>ATOM
      1 O1         15.6752   -23.2218    10.2951 O.co2      1          -0.6817
      2 C1         15.1234   -22.6958    11.2466 C.2        1           0.5039
      3 O2         14.0080   -23.0573    11.5807 O.co2      1          -0.6890
      4 C2         15.8225   -21.6029    12.0134 C.3        1          -0.1314
      5 C3         16.1248   -20.4535    11.0867 C.2        1           0.1871
      6 N1         15.3563   -19.4355    10.8497 N.2        1          -0.2984
      7 O3         15.9835   -18.5686     9.9260 O.3        1          -0.1093
      8 C4         17.1847   -19.0756     9.5829 C.ar       1           0.0811
      9 C5         18.1954   -18.6463     8.7310 C.ar       1          -0.1335
     10 C6         19.3371   -19.4043     8.5865 C.ar       1          -0.0710
     11 C7         19.4882   -20.5943     9.2844 C.ar       1          -0.1600
     12 C8         18.5064   -21.0338    10.1268 C.ar       1          -0.0310
     13 C9         17.3439   -20.2773    10.2923 C.ar       1          -0.1770
     14 H1         15.1788   -21.2577    12.8224 H          1           0.0919
     15 H2         16.7532   -21.9889    12.4290 H          1           0.0902
     16 H3         18.0862   -17.7217     8.1837 H          1           0.1330
     17 H4         20.1214   -19.0693     7.9238 H          1           0.1337
     18 H5         20.3886   -21.1776     9.1605 H          1           0.1297
     19 H6         18.6309   -21.9608    10.6666 H          1           0.1317
@<TRIPOS>BOND
     1    1    2 1
     2    2    3 2
     3    2    4 1
     4    4    5 1
     5    4   14 1
     6    4   15 1
     7    5   13 1
     8    5    6 2
     9    6    7 1
    10    7    8 1
    11    8   13 ar
    12    8    9 ar
    13    9   10 ar
    14    9   16 1
    15   10   11 ar
    16   10   17 1
    17   11   12 ar
    18   11   18 1
    19   12   13 ar
    20   12   19 1
