AVX101118_1, 3
##########                 Name:          AVX101118_0
##########          Protonation:                   22
##########               SMILES:   CN(Cc1ccccc1C(=O)NCC2CCCCC2)Cc3ccc4c(c3C(=O)[O-])OCCO4
##########            Long Name:   henyl]methyl-methyl-amino]methyl]-2,3-dihydro-1,4-benzodioxine-5-carboxylate
##########          FlexRecCode: 1
##########               Number:                  395
##########   Ligand Source File: /raid1/people/rgc/Examples/sampl4/screening/ligands/build_1//sampl4-hivint-00000
##########           GlobalRank: 63
##########                 Rank:                    1
##########               Setnum:                   71
##########             Matchnum:                25485
##########                Cloud:                    1
##########        Electrostatic:           -40.875031
##########        Van der Waals:           -20.216770
##########  Ligand Polar Desolv:            23.694252
########## Ligand Apolar Desolv:            -2.128634
##########      Internal Energy:             0.000000
##########      Receptor Energy: 0.0
########## Receptor Desolvation:             0.000000
########## Receptor Hydrophobic:             0.000000
##########         Total Energy: -39.53
##########        Ligand Charge:            -1.000000
##########            Arbitrary:    +999.9990
##########     heavy atom count:   33
##########           pose count:    1
##########        Ligand Energy:             0.000000
# num electro vdwattr vdwrepu polsolv apolsol rdesolv rhydroe totalscore fullpol fullapo
#   1    0.03   -0.91    0.20   -0.12   -0.13    0.00    0.00      -0.92   -0.43   -0.44
#   2   -3.30   -0.49    0.02    2.02    0.38    0.00    0.00      -1.37   10.51    1.96
#   3    0.26   -0.17    0.00   -0.19   -0.03    0.00    0.00      -0.12   -1.90   -0.31
#   4   -0.01   -0.23    0.01    0.06   -0.03    0.00    0.00      -0.20    0.76   -0.32
#   5   -0.11   -0.33    0.01    0.15   -0.05    0.00    0.00      -0.32    1.28   -0.42
#   6   -0.09   -0.28    0.01    0.03   -0.05    0.00    0.00      -0.37    0.31   -0.47
#   7   -0.11   -0.20    0.01    0.02   -0.03    0.00    0.00      -0.32    0.23   -0.47
#   8   -0.07   -0.17    0.01    0.02   -0.03    0.00    0.00      -0.24    0.34   -0.44
#   9   -0.10   -0.18    0.01    0.12   -0.03    0.00    0.00      -0.18    1.74   -0.41
#  10    0.49   -0.14    0.00   -0.45   -0.04    0.00    0.00      -0.13   -7.93   -0.65
#  11   -0.59   -0.06    0.00    0.38    0.01    0.00    0.00      -0.26   13.04    0.31
#  12   -0.51   -0.25    0.02    0.62    0.20    0.00    0.00       0.07    6.84    2.20
#  13    0.12   -0.11    0.00   -0.09   -0.02    0.00    0.00      -0.10   -1.51   -0.38
#  14   -0.07   -0.17    0.01    0.04   -0.01    0.00    0.00      -0.20    0.45   -0.15
#  15   -0.09   -0.59    0.10    0.13   -0.05    0.00    0.00      -0.50    0.56   -0.22
#  16   -0.07   -0.78    0.16    0.10   -0.07    0.00    0.00      -0.66    0.36   -0.25
#  17   -0.05   -0.29    0.01    0.10   -0.04    0.00    0.00      -0.28    0.53   -0.25
#  18   -0.06   -0.14    0.00    0.04   -0.02    0.00    0.00      -0.17    0.56   -0.25
#  19   -0.06   -0.09    0.00    0.04   -0.01    0.00    0.00      -0.12    0.91   -0.22
#  20    2.00   -0.44    0.09   -0.93   -0.06    0.00    0.00       0.66   -4.67   -0.28
#  21   -0.69   -0.67    0.09    0.29   -0.09    0.00    0.00      -1.07    1.29   -0.39
#  22   -1.53   -0.63    0.04    0.41   -0.09    0.00    0.00      -1.81    1.75   -0.38
#  23   -1.54   -1.09    0.23    0.35   -0.13    0.00    0.00      -2.19    1.21   -0.46
#  24    0.21   -1.01    0.12   -0.21   -0.09    0.00    0.00      -0.97   -0.67   -0.30
#  25   -4.68   -1.29    0.44    1.68    0.24    0.00    0.00      -3.61    4.81    0.68
#  26    0.45   -0.93    0.12   -0.14   -0.06    0.00    0.00      -0.55   -0.33   -0.14
#  27    0.37   -1.48    0.39    0.14   -0.07    0.00    0.00      -0.64    0.29   -0.14
#  28   -9.56   -1.49    0.35    4.13    0.11    0.00    0.00      -6.47    9.90    0.27
#  29    2.28   -0.94    0.07   -0.51   -0.10    0.00    0.00       0.80   -1.61   -0.30
#  30   -4.10   -0.88    0.10    2.31   -0.12    0.00    0.00      -2.69    8.02   -0.41
#  31   20.25   -1.51    0.42   -6.92   -0.06    0.00    0.00      12.18  -19.90   -0.17
#  32  -22.68   -1.78    0.53   13.00   -0.14    0.00    0.00     -11.06   31.33   -0.33
#  33  -32.13   -2.41    1.19   12.25   -0.22    0.00    0.00     -21.32   32.35   -0.59
#  34    0.07   -0.41    0.13   -0.10   -0.08    0.00    0.00      -0.41   -0.35   -0.28
#  35   -0.07   -0.25    0.03   -0.20   -0.05    0.00    0.00      -0.53   -0.88   -0.22
#  36   -0.10   -0.44    0.21   -0.38   -0.06    0.00    0.00      -0.77   -1.58   -0.24
#  37    0.30   -0.03    0.00   -0.03   -0.01    0.00    0.00       0.23   -1.26   -0.20
#  38    0.09   -0.06    0.00   -0.02   -0.01    0.00    0.00       0.00   -0.41   -0.27
#  39    0.09   -0.11    0.01   -0.11   -0.03    0.00    0.00      -0.15   -1.19   -0.28
#  40    0.13   -0.07    0.00   -0.02   -0.02    0.00    0.00       0.03   -0.35   -0.28
#  41    0.11   -0.03    0.00    0.00   -0.01    0.00    0.00       0.07    0.05   -0.28
#  42    0.08   -0.02    0.00   -0.01    0.00    0.00    0.00       0.04   -0.37   -0.22
#  43    0.21   -0.01    0.00   -0.22    0.04    0.00    0.00       0.03   -2.13    0.39
#  44    0.15   -0.04    0.00   -0.01   -0.01    0.00    0.00       0.10   -0.33   -0.28
#  45    0.06   -0.01    0.00   -0.01    0.00    0.00    0.00       0.04   -0.40   -0.28
#  46    0.05   -0.04    0.00   -0.02   -0.01    0.00    0.00      -0.02   -0.52   -0.28
#  47    0.03   -0.26    0.10   -0.05   -0.06    0.00    0.00      -0.24   -0.27   -0.28
#  48    0.12   -0.30    0.13   -0.07   -0.06    0.00    0.00      -0.18   -0.31   -0.24
#  49    0.04   -0.54    0.22   -0.07   -0.09    0.00    0.00      -0.45   -0.22   -0.28
#  50    0.04   -0.27    0.07   -0.05   -0.07    0.00    0.00      -0.27   -0.20   -0.28
#  51    0.02   -0.08    0.00   -0.02   -0.02    0.00    0.00      -0.09   -0.26   -0.28
#  52    0.02   -0.09    0.00   -0.02   -0.02    0.00    0.00      -0.10   -0.28   -0.28
#  53    0.03   -0.02    0.00   -0.01    0.00    0.00    0.00       0.00   -0.34   -0.28
#  54    0.04   -0.07    0.01   -0.02   -0.02    0.00    0.00      -0.07   -0.33   -0.28
#  55    0.04   -0.01    0.00   -0.01    0.00    0.00    0.00       0.02   -0.44   -0.28
#  56    0.03   -0.03    0.00   -0.01   -0.01    0.00    0.00      -0.01   -0.41   -0.28
#  57    1.37   -0.15    0.01    0.00   -0.03    0.00    0.00       1.21    0.02   -0.22
#  58    1.43   -0.22    0.18   -0.06   -0.03    0.00    0.00       1.29   -0.42   -0.25
#  59    1.17   -0.10    0.01   -0.32   -0.02    0.00    0.00       0.73   -3.30   -0.22
#  60    1.03   -0.50    0.53   -0.77   -0.08    0.00    0.00       0.21   -2.79   -0.28
#  61    2.79   -0.25    0.04   -0.36   -0.06    0.00    0.00       2.16   -1.64   -0.28
#  62    1.10   -0.38    0.13   -0.34   -0.09    0.00    0.00       0.41   -1.03   -0.28
#  63    2.06   -0.68    0.24   -0.71   -0.16    0.00    0.00       0.74   -1.28   -0.28
#  64    2.34   -0.99    1.52   -1.14   -0.13    0.00    0.00       1.59   -2.39   -0.28

@<TRIPOS>MOLECULE
      AVX101118_0        22
   64    67     0     0     0



@<TRIPOS>ATOM
      1 C1         15.9873   -24.8422    15.4692 C.3        1           0.0187
      2 N1         15.5449   -23.4503    15.6272 N.3        1          -0.5256
      3 C2         14.6426   -23.3122    16.7782 C.3        1           0.0879
      4 C3         15.3609   -23.7363    18.0332 C.ar       1          -0.0097
      5 C4         15.3166   -25.0528    18.4438 C.ar       1          -0.1229
      6 C5         15.9753   -25.4437    19.5958 C.ar       1          -0.0975
      7 C6         16.6825   -24.5188    20.3436 C.ar       1          -0.1339
      8 C7         16.7352   -23.1996    19.9440 C.ar       1          -0.0920
      9 C8         16.0771   -22.7995    18.7796 C.ar       1          -0.1140
     10 C9         16.1339   -21.3885    18.3422 C.2        1           0.5498
     11 O1         15.1092   -20.7434    18.2356 O.2        1          -0.4905
     12 N2         17.3220   -20.8172    18.0616 N.am       1          -0.7332
     13 C10        17.3783   -19.4189    17.6281 C.3        1           0.1258
     14 C11        18.7027   -18.7987    18.0773 C.3        1          -0.0972
     15 C12        19.8660   -19.5731    17.4543 C.3        1          -0.1149
     16 C13        21.1905   -18.9530    17.9035 C.3        1          -0.1191
     17 C14        21.2929   -19.0186    19.4288 C.3        1          -0.1208
     18 C15        20.1298   -18.2441    20.0519 C.3        1          -0.1180
     19 C16        18.8051   -18.8643    19.6025 C.3        1          -0.1135
     20 C17        14.9095   -22.9571    14.3979 C.3        1           0.1234
     21 C18        15.9733   -22.5597    13.4073 C.ar       1          -0.0338
     22 C19        17.0598   -21.8218    13.8218 C.ar       1          -0.1164
     23 C20        18.0424   -21.4533    12.9176 C.ar       1          -0.1234
     24 C21        17.9440   -21.8229    11.5859 C.ar       1           0.0120
     25 O2         18.9205   -21.4560    10.7113 O.3        1          -0.3166
     26 C22        18.5922   -21.5161     9.3195 C.3        1           0.0218
     27 C23        17.9360   -22.8777     9.0611 C.3        1           0.0136
     28 O3         16.7424   -22.9338     9.8489 O.3        1          -0.2591
     29 C24        16.8532   -22.5669    11.1512 C.ar       1           0.0816
     30 C25        15.8607   -22.9449    12.0667 C.ar       1          -0.1387
     31 C26        14.7046   -23.7382    11.6194 C.2        1           0.5240
     32 O4         14.7545   -24.9603    11.6452 O.co2      1          -0.6873
     33 O5         13.6937   -23.1756    11.2216 O.co2      1          -0.6705
     34 H1         16.6541   -24.9161    14.6100 H          1           0.0211
     35 H2         16.5162   -25.1596    16.3679 H          1           0.0680
     36 H3         15.1201   -25.4835    15.3123 H          1           0.0575
     37 H4         14.3303   -22.2722    16.8721 H          1           0.1104
     38 H5         13.7660   -23.9429    16.6304 H          1           0.0337
     39 H6         14.7660   -25.7796    17.8650 H          1           0.1261
     40 H7         15.9372   -26.4754    19.9131 H          1           0.1231
     41 H8         17.1941   -24.8304    21.2422 H          1           0.1234
     42 H9         17.2876   -22.4787    20.5283 H          1           0.1205
     43 H10        18.1397   -21.3318    18.1468 H          1           0.3929
     44 H11        17.3052   -19.3722    16.5415 H          1           0.0706
     45 H12        16.5496   -18.8673    18.0719 H          1           0.0671
     46 H13        18.7448   -17.7584    17.7548 H          1           0.0752
     47 H14        19.8239   -20.6135    17.7769 H          1           0.0650
     48 H15        19.7930   -19.5265    16.3677 H          1           0.0604
     49 H16        22.0191   -19.5047    17.4597 H          1           0.0601
     50 H17        21.2324   -17.9126    17.5811 H          1           0.0605
     51 H18        21.2509   -20.0590    19.7513 H          1           0.0616
     52 H19        22.2365   -18.5767    19.7489 H          1           0.0588
     53 H20        20.2027   -18.2908    21.1384 H          1           0.0620
     54 H21        20.1718   -17.2038    19.7293 H          1           0.0610
     55 H22        17.9766   -18.3125    20.0464 H          1           0.0671
     56 H23        18.7632   -19.9047    19.9250 H          1           0.0662
     57 H24        14.2890   -23.7438    13.9688 H          1           0.0713
     58 H25        14.2892   -22.0919    14.6316 H          1           0.0919
     59 H26        17.1461   -21.5286    14.8576 H          1           0.1358
     60 H27        18.8901   -20.8740    13.2526 H          1           0.1188
     61 H28        17.8958   -20.7160     9.0686 H          1           0.1107
     62 H29        19.4984   -21.4225     8.7211 H          1           0.0694
     63 H30        17.6869   -22.9740     8.0043 H          1           0.0673
     64 H31        18.6138   -23.6777     9.3586 H          1           0.1125
@<TRIPOS>BOND
     1    1    2 1
     2    1   34 1
     3    1   35 1
     4    1   36 1
     5    2    3 1
     6    2   20 1
     7    3    4 1
     8    3   37 1
     9    3   38 1
    10    4    9 ar
    11    4    5 ar
    12    5    6 ar
    13    5   39 1
    14    6    7 ar
    15    6   40 1
    16    7    8 ar
    17    7   41 1
    18    8    9 ar
    19    8   42 1
    20    9   10 1
    21   10   11 2
    22   10   12 am
    23   12   13 1
    24   12   43 1
    25   13   14 1
    26   13   44 1
    27   13   45 1
    28   14   19 1
    29   14   15 1
    30   14   46 1
    31   15   16 1
    32   15   47 1
    33   15   48 1
    34   16   17 1
    35   16   49 1
    36   16   50 1
    37   17   18 1
    38   17   51 1
    39   17   52 1
    40   18   19 1
    41   18   53 1
    42   18   54 1
    43   19   55 1
    44   19   56 1
    45   20   21 1
    46   20   57 1
    47   20   58 1
    48   21   30 ar
    49   21   22 ar
    50   22   23 ar
    51   22   59 1
    52   23   24 ar
    53   23   60 1
    54   24   29 ar
    55   24   25 1
    56   25   26 1
    57   26   27 1
    58   26   61 1
    59   26   62 1
    60   27   28 1
    61   27   63 1
    62   27   64 1
    63   28   29 1
    64   29   30 ar
    65   30   31 1
    66   31   32 1
    67   31   33 2
