AVX17631_0, 3
##########                 Name:           AVX17631_0
##########          Protonation:                  100
##########               SMILES:   c1ccc2c(c1)c(no2)N
##########            Long Name:   1,2-benzoxazol-3-amine
##########          FlexRecCode: 1
##########               Number:                  499
##########   Ligand Source File: /raid1/people/rgc/Examples/sampl4/screening/ligands/build_1//sampl4-hivint-00000
##########           GlobalRank: 131
##########                 Rank:                    1
##########               Setnum:                    1
##########             Matchnum:                 8183
##########                Cloud:                    1
##########        Electrostatic:           -12.185690
##########        Van der Waals:           -11.770702
##########  Ligand Polar Desolv:             3.182173
########## Ligand Apolar Desolv:            -1.139305
##########      Internal Energy:             0.000000
##########      Receptor Energy: 0.0
########## Receptor Desolvation:             0.000000
########## Receptor Hydrophobic:             0.000000
##########         Total Energy: -21.91
##########        Ligand Charge:             0.000000
##########            Arbitrary:    +999.9990
##########     heavy atom count:   10
##########           pose count:    1
##########        Ligand Energy:             0.000000
# num electro vdwattr vdwrepu polsolv apolsol rdesolv rhydroe totalscore fullpol fullapo
#   1  -11.06   -2.40    0.87   -0.51    0.32    0.00    0.00     -12.77   -1.45    0.90
#   2    8.50   -1.98    1.06   -0.48   -0.80    0.00    0.00       6.31   -1.43   -2.39
#   3  -12.82   -2.42    1.96    1.25    0.44    0.00    0.00     -11.60    3.67    1.28
#   4   -3.49   -1.39    0.58    0.49   -0.03    0.00    0.00      -3.84    1.45   -0.08
#   5    2.54   -1.18    0.18   -0.09   -0.12    0.00    0.00       1.33   -0.24   -0.35
#   6   -2.38   -1.51    0.26    0.12   -0.21    0.00    0.00      -3.72    0.27   -0.48
#   7   -0.61   -2.11    0.78   -0.05   -0.21    0.00    0.00      -2.20   -0.11   -0.47
#   8   -1.58   -1.68    0.60   -0.22   -0.20    0.00    0.00      -3.08   -0.51   -0.47
#   9   -0.47   -1.42    0.25   -0.03   -0.18    0.00    0.00      -1.85   -0.07   -0.47
#  10   -4.14   -1.39    0.36    0.24   -0.15    0.00    0.00      -5.07    0.71   -0.44
#  11    2.78   -0.05    0.00    0.84    0.20    0.00    0.00       3.77    2.52    0.60
#  12    5.08   -0.03    0.00    0.40    0.19    0.00    0.00       5.64    1.26    0.60
#  13    2.63   -0.37    0.10   -0.02   -0.09    0.00    0.00       2.24   -0.06   -0.28
#  14    0.87   -0.58    0.21    0.54   -0.13    0.00    0.00       0.90    1.16   -0.28
#  15    0.97   -0.27    0.04    0.37   -0.08    0.00    0.00       1.03    1.30   -0.28
#  16    0.97   -0.40    0.18    0.33   -0.09    0.00    0.00       0.99    1.05   -0.28

@<TRIPOS>MOLECULE
       AVX17631_0       100
   16    17     0     0     0



@<TRIPOS>ATOM
      1 N1         16.6606   -17.6809     8.2087 N.pl3      1          -0.8162
      2 C1         16.8424   -18.9539     8.7306 C.2        1           0.3772
      3 N2         15.9077   -19.7514     9.1679 N.2        1          -0.3595
      4 O1         16.4869   -20.9590     9.6196 O.3        1          -0.0920
      5 C2         17.8245   -20.9052     9.4557 C.ar       1           0.1013
      6 C3         18.8550   -21.7978     9.7260 C.ar       1          -0.1316
      7 C4         20.1570   -21.4477     9.4400 C.ar       1          -0.0556
      8 C5         20.4493   -20.2105     8.8843 C.ar       1          -0.1547
      9 C6         19.4494   -19.3192     8.6117 C.ar       1          -0.0383
     10 C7         18.1244   -19.6576     8.8878 C.ar       1          -0.2113
     11 H1         17.4253   -17.1683     7.9032 H          1           0.4171
     12 H2         15.7685   -17.3054     8.1459 H          1           0.4155
     13 H3         18.6363   -22.7626    10.1592 H          1           0.1411
     14 H4         20.9567   -22.1423     9.6506 H          1           0.1412
     15 H5         21.4743   -19.9496     8.6657 H          1           0.1355
     16 H6         19.6839   -18.3575     8.1798 H          1           0.1303
@<TRIPOS>BOND
     1    1    2 1
     2    1   11 1
     3    1   12 1
     4    2   10 1
     5    2    3 2
     6    3    4 1
     7    4    5 1
     8    5   10 ar
     9    5    6 ar
    10    6    7 ar
    11    6   13 1
    12    7    8 ar
    13    7   14 1
    14    8    9 ar
    15    8   15 1
    16    9   10 ar
    17    9   16 1
