AVX17389_0, 3
##########                 Name:           AVX17389_0
##########          Protonation:                  100
##########               SMILES:   c1cc(c2c(c1)OCO2)C(=O)NCC(=O)[O-]
##########            Long Name:   2-(1,3-benzodioxole-4-carbonylamino)acetate
##########          FlexRecCode: 1
##########               Number:                  166
##########   Ligand Source File: /raid1/people/rgc/Examples/sampl4/screening/ligands/build_1//sampl4-hivint-00000
##########           GlobalRank: 90
##########                 Rank:                    1
##########               Setnum:                   11
##########             Matchnum:                 5176
##########                Cloud:                    1
##########        Electrostatic:           -43.398567
##########        Van der Waals:           -12.263414
##########  Ligand Polar Desolv:            21.411209
########## Ligand Apolar Desolv:            -1.238551
##########      Internal Energy:             0.000000
##########      Receptor Energy: 0.0
########## Receptor Desolvation:             0.000000
########## Receptor Hydrophobic:             0.000000
##########         Total Energy: -35.49
##########        Ligand Charge:            -1.000000
##########            Arbitrary:    +999.9990
##########     heavy atom count:   16
##########           pose count:    1
##########        Ligand Energy:             0.000000
# num electro vdwattr vdwrepu polsolv apolsol rdesolv rhydroe totalscore fullpol fullapo
#   1  -29.02   -3.63    4.90   10.85   -0.18    0.00    0.00     -17.09   24.09   -0.41
#   2   21.44   -2.32    1.73   -5.87   -0.07    0.00    0.00      14.92  -15.23   -0.17
#   3  -32.56   -2.60    1.26   12.70   -0.20    0.00    0.00     -21.40   27.98   -0.43
#   4    1.84   -0.79    0.21   -0.73   -0.14    0.00    0.00       0.40   -2.53   -0.47
#   5  -22.94   -1.05    0.12    5.04    0.73    0.00    0.00     -18.11   16.02    2.31
#   6   12.66   -0.77    0.04   -3.46   -0.19    0.00    0.00       8.29  -12.11   -0.65
#   7  -10.19   -0.51    0.02    3.70   -0.01    0.00    0.00      -6.98   15.91   -0.03
#   8   -2.02   -1.15    0.19    1.04   -0.14    0.00    0.00      -2.09    2.99   -0.41
#   9    1.84   -1.03    0.12   -0.22   -0.11    0.00    0.00       0.61   -0.65   -0.32
#  10   -6.64   -0.94    0.14    1.79    0.11    0.00    0.00      -5.54    5.92    0.35
#  11    3.04   -1.08    0.28   -0.63    0.01    0.00    0.00       1.62   -1.82    0.02
#  12   -4.20   -1.75    0.43    1.34    0.22    0.00    0.00      -3.96    3.20    0.52
#  13    0.22   -1.49    0.39   -0.02   -0.13    0.00    0.00      -1.03   -0.05   -0.33
#  14   -0.79   -2.06    0.80    0.07   -0.22    0.00    0.00      -2.20    0.15   -0.47
#  15   -0.84   -3.42    2.19    0.19   -0.23    0.00    0.00      -2.11    0.38   -0.47
#  16   -0.80   -3.00    1.80    0.40   -0.19    0.00    0.00      -1.80    0.94   -0.44
#  17    3.25   -0.73    2.38   -0.46   -0.06    0.00    0.00       4.38   -1.99   -0.28
#  18    1.69   -0.14    0.01   -0.27   -0.04    0.00    0.00       1.26   -2.03   -0.28
#  19   15.55   -0.02    0.00   -2.25    0.09    0.00    0.00      13.36   -9.02    0.37
#  20    2.03   -0.71    0.46   -0.44   -0.11    0.00    0.00       1.24   -1.16   -0.28
#  21    0.77   -0.16    0.02   -0.14   -0.04    0.00    0.00       0.44   -0.93   -0.28
#  22    0.97   -0.38    0.12   -0.21   -0.10    0.00    0.00       0.40   -0.60   -0.28
#  23    0.25   -0.96    0.59   -0.28   -0.15    0.00    0.00      -0.55   -0.50   -0.28
#  24    1.04   -1.08    1.32   -0.75   -0.10    0.00    0.00       0.44   -1.73   -0.22

@<TRIPOS>MOLECULE
       AVX17389_0       100
   24    25     0     0     0



@<TRIPOS>ATOM
      1 O1         14.7091   -25.1524    10.9961 O.co2      1          -0.6923
      2 C1         14.2570   -24.0474    11.2434 C.2        1           0.4913
      3 O2         13.1024   -23.7825    10.9543 O.co2      1          -0.6870
      4 C2         15.1231   -23.0111    11.9119 C.3        1           0.0506
      5 N1         16.2912   -22.7356    11.0718 N.am       1          -0.6918
      6 C3         17.2112   -21.8352    11.4711 C.2        1           0.5422
      7 O3         17.0716   -21.2515    12.5286 O.2        1          -0.5423
      8 C4         18.3877   -21.5577    10.6251 C.ar       1          -0.1102
      9 C5         18.3372   -20.5445     9.6607 C.ar       1           0.0931
     10 O4         17.3433   -19.6839     9.3048 O.3        1          -0.2807
     11 C6         17.9918   -18.6297     8.5689 C.3        1           0.2068
     12 O5         19.1571   -19.2676     8.0137 O.3        1          -0.3101
     13 C7         19.4534   -20.2907     8.8681 C.ar       1           0.0153
     14 C8         20.6056   -21.0399     9.0374 C.ar       1          -0.0815
     15 C9         20.6552   -22.0420     9.9920 C.ar       1          -0.1182
     16 C10        19.5600   -22.3015    10.7867 C.ar       1          -0.0756
     17 H1         14.5509   -22.0939    12.0506 H          1           0.0679
     18 H2         15.4528   -23.3839    12.8816 H          1           0.0679
     19 H3         16.4028   -23.2013    10.2282 H          1           0.4071
     20 H4         17.3421   -18.2610     7.7751 H          1           0.1320
     21 H5         18.2809   -17.8182     9.2366 H          1           0.0845
     22 H6         21.4704   -20.8417     8.4215 H          1           0.1376
     23 H7         21.5584   -22.6211    10.1165 H          1           0.1449
     24 H8         19.6062   -23.0817    11.5321 H          1           0.1484
@<TRIPOS>BOND
     1    1    2 1
     2    2    3 2
     3    2    4 1
     4    4    5 1
     5    4   17 1
     6    4   18 1
     7    5    6 am
     8    5   19 1
     9    6    7 2
    10    6    8 1
    11    8   16 ar
    12    8    9 ar
    13    9   13 ar
    14    9   10 1
    15   10   11 1
    16   11   12 1
    17   11   20 1
    18   11   21 1
    19   12   13 1
    20   13   14 ar
    21   14   15 ar
    22   14   22 1
    23   15   16 ar
    24   15   23 1
    25   16   24 1
