AVX16980_0, 3
##########                 Name:           AVX16980_0
##########          Protonation:                  100
##########               SMILES:   c1ccc2c(c1)/C(=C\c3cccc(c3)C(=O)[O-])/C(=[NH+]2)[O-]
##########            Long Name:   3-[(E)-(2-oxidoindol-1-ium-3-ylidene)methyl]benzoate
##########          FlexRecCode: 1
##########               Number:                   68
##########   Ligand Source File: /raid1/people/rgc/Examples/sampl4/screening/ligands/build_1//sampl4-hivint-00000
##########           GlobalRank: 48
##########                 Rank:                    1
##########               Setnum:                    2
##########             Matchnum:                 9359
##########                Cloud:                    1
##########        Electrostatic:           -43.350601
##########        Van der Waals:           -15.896364
##########  Ligand Polar Desolv:            20.202972
########## Ligand Apolar Desolv:            -1.767698
##########      Internal Energy:             0.000000
##########      Receptor Energy: 0.0
########## Receptor Desolvation:             0.000000
########## Receptor Hydrophobic:             0.000000
##########         Total Energy: -40.81
##########        Ligand Charge:            -1.000000
##########            Arbitrary:    +999.9990
##########     heavy atom count:   20
##########           pose count:    1
##########        Ligand Energy:             0.000000
# num electro vdwattr vdwrepu polsolv apolsol rdesolv rhydroe totalscore fullpol fullapo
#   1  -33.68   -2.54    1.66   10.88   -0.15    0.00    0.00     -23.83   29.49   -0.40
#   2   20.96   -1.67    1.01   -5.39   -0.05    0.00    0.00      14.86  -17.54   -0.16
#   3  -26.54   -2.17    1.98   10.02   -0.13    0.00    0.00     -16.84   30.36   -0.40
#   4   -3.73   -0.80    0.09    1.62   -0.11    0.00    0.00      -2.93    5.99   -0.41
#   5   -1.21   -0.90    0.06    0.54   -0.14    0.00    0.00      -1.66    1.69   -0.43
#   6   -1.78   -1.50    0.26    0.45   -0.12    0.00    0.00      -2.69    1.30   -0.35
#   7    0.73   -2.71    1.39   -0.09   -0.18    0.00    0.00      -0.86   -0.21   -0.45
#   8   -2.68   -1.68    0.80    0.79   -0.16    0.00    0.00      -2.93    2.09   -0.41
#   9    6.66   -1.96    0.71   -3.30   -0.32    0.00    0.00       1.80   -7.30   -0.71
#  10   -3.73   -2.64    1.38    4.99    0.24    0.00    0.00       0.23    9.33    0.44
#  11   -8.73   -1.83    0.70    2.26    0.79    0.00    0.00      -6.82    5.35    1.86
#  12    4.89   -0.04    0.00   -0.94    0.23    0.00    0.00       4.14   -2.40    0.59
#  13    2.14   -1.16    0.15   -0.34   -0.26    0.00    0.00       0.54   -0.98   -0.77
#  14   -1.78   -1.44    0.36    0.13   -0.15    0.00    0.00      -2.88    0.42   -0.48
#  15   -1.17   -0.72    0.05    0.03   -0.11    0.00    0.00      -1.93    0.12   -0.47
#  16   -2.51   -0.50    0.02    0.16   -0.09    0.00    0.00      -2.91    0.87   -0.47
#  17   -1.33   -0.59    0.05    0.21   -0.08    0.00    0.00      -1.75    1.03   -0.38
#  18   -1.66   -0.93    0.18    0.52   -0.11    0.00    0.00      -2.00    1.82   -0.39
#  19   -0.82   -2.06    0.62    0.12   -0.10    0.00    0.00      -2.22    0.35   -0.27
#  20   -1.47   -1.10    0.23    0.32   -0.13    0.00    0.00      -2.15    1.16   -0.46
#  21   -1.00   -0.64    0.04    0.38   -0.11    0.00    0.00      -1.32    1.63   -0.45
#  22    4.42   -0.21    0.02   -0.50   -0.05    0.00    0.00       3.67   -2.46   -0.27
#  23    0.76   -1.34    2.68   -1.05   -0.13    0.00    0.00       0.92   -2.25   -0.28
#  24    0.66   -0.93    2.40   -0.09   -0.09    0.00    0.00       1.95   -0.27   -0.28
#  25    1.13   -0.12    0.00   -0.02   -0.04    0.00    0.00       0.96   -0.12   -0.28
#  26    2.07   -0.08    0.01   -0.06   -0.02    0.00    0.00       1.91   -0.78   -0.28
#  27    2.95   -0.10    0.00   -0.12   -0.02    0.00    0.00       2.72   -1.22   -0.16
#  28    0.52   -0.91    0.75   -0.79   -0.10    0.00    0.00      -0.54   -1.84   -0.24
#  29    0.79   -0.26    0.12   -0.32   -0.05    0.00    0.00       0.28   -1.90   -0.28
#  30    1.79   -0.09    0.01   -0.21   -0.02    0.00    0.00       1.47   -2.44   -0.27

@<TRIPOS>MOLECULE
       AVX16980_0       100
   30    32     0     0     0



@<TRIPOS>ATOM
      1 O1         14.2683   -23.1706    10.8013 O.co2      1          -0.6847
      2 C1         14.4998   -23.1017    12.0001 C.2        1           0.5199
      3 O2         13.5913   -23.2379    12.8071 O.co2      1          -0.6843
      4 C2         15.8768   -22.8603    12.4727 C.ar       1          -0.1391
      5 C3         16.9123   -22.6989    11.5538 C.ar       1          -0.0482
      6 C4         18.2127   -22.4704    12.0108 C.ar       1          -0.1226
      7 C5         19.3112   -22.2985    11.0516 C.2        1           0.0651
      8 C6         19.2705   -21.2827    10.1438 C.2        1          -0.1884
      9 C7         20.1546   -21.0844     8.9809 C.2        1           0.5649
     10 O3         21.0736   -21.8085     8.6452 O.3        1          -0.5054
     11 N1         19.7565   -19.9428     8.3488 N.pl3      1          -0.6639
     12 H1         20.1733   -19.5835     7.5500 H          1           0.4143
     13 C8         18.6735   -19.3629     9.0005 C.ar       1           0.1411
     14 C9         17.9424   -18.2116     8.7270 C.ar       1          -0.1452
     15 C10        16.8925   -17.8467     9.5450 C.ar       1          -0.0879
     16 C11        16.5541   -18.6182    10.6441 C.ar       1          -0.1431
     17 C12        17.2679   -19.7639    10.9315 C.ar       1          -0.0676
     18 C13        18.3245   -20.1438    10.1094 C.ar       1          -0.0941
     19 C14        18.4649   -22.4050    13.3879 C.ar       1          -0.0904
     20 C15        17.4333   -22.5664    14.2893 C.ar       1          -0.1484
     21 C16        16.1445   -22.7869    13.8435 C.ar       1          -0.0623
     22 H2         16.7107   -22.7509    10.4940 H          1           0.1332
     23 H3         20.1514   -22.9770    11.0654 H          1           0.1437
     24 H4         18.1972   -17.6017     7.8728 H          1           0.1228
     25 H5         16.3300   -16.9511     9.3261 H          1           0.1271
     26 H6         15.7307   -18.3227    11.2775 H          1           0.1279
     27 H7         17.0049   -20.3655    11.7888 H          1           0.1442
     28 H8         19.4692   -22.2284    13.7440 H          1           0.1198
     29 H9         17.6334   -22.5160    15.3494 H          1           0.1213
     30 H10        15.3417   -22.9075    14.5558 H          1           0.1304
@<TRIPOS>BOND
     1    1    2 1
     2    2    3 2
     3    2    4 1
     4    4   21 ar
     5    4    5 ar
     6    5    6 ar
     7    5   22 1
     8    6    7 1
     9    6   19 ar
    10    7    8 2
    11    7   23 1
    12    8   18 1
    13    8    9 1
    14    9   10 1
    15    9   11 2
    16   11   12 1
    17   11   13 1
    18   13   18 ar
    19   13   14 ar
    20   14   15 ar
    21   14   24 1
    22   15   16 ar
    23   15   25 1
    24   16   17 ar
    25   16   26 1
    26   17   18 ar
    27   17   27 1
    28   19   20 ar
    29   19   28 1
    30   20   21 ar
    31   20   29 1
    32   21   30 1
