AVX101121_0, 3
##########                 Name:          AVX101121_0
##########          Protonation:                   15
##########               SMILES:   CN(Cc1cccc(c1C(=O)[O-])OC)Cc2cc3ccccc3cc2C(=O)NCc4ccc(cc4)OC
##########            Long Name:   ethoxyphenyl)methylcarbamoyl]-2-naphthyl]methyl-methyl-amino]methyl]benzoate
##########          FlexRecCode: 1
##########               Number:                  112
##########   Ligand Source File: /raid1/people/rgc/Examples/sampl4/screening/ligands/build_1//sampl4-hivint-00000
##########           GlobalRank: 44
##########                 Rank:                    1
##########               Setnum:                  141
##########             Matchnum:                 7634
##########                Cloud:                    1
##########        Electrostatic:           -39.836166
##########        Van der Waals:           -17.621771
##########  Ligand Polar Desolv:            19.027370
########## Ligand Apolar Desolv:            -2.540972
##########      Internal Energy:             0.000000
##########      Receptor Energy: 0.0
########## Receptor Desolvation:             0.000000
########## Receptor Hydrophobic:             0.000000
##########         Total Energy: -40.97
##########        Ligand Charge:            -1.000000
##########            Arbitrary:    +999.9990
##########     heavy atom count:   37
##########           pose count:    1
##########        Ligand Energy:             0.000000
# num electro vdwattr vdwrepu polsolv apolsol rdesolv rhydroe totalscore fullpol fullapo
#   1    0.05   -1.37    0.41    0.00    0.01    0.00    0.00      -0.90    0.00    0.03
#   2   -0.40   -0.50    0.02    0.59    0.24    0.00    0.00      -0.05    2.29    0.93
#   3    0.18   -0.56    0.05   -0.16   -0.06    0.00    0.00      -0.55   -0.78   -0.31
#   4   -0.23   -0.20    0.01    0.08   -0.03    0.00    0.00      -0.38    0.99   -0.42
#   5   -0.07   -0.17    0.01    0.02   -0.03    0.00    0.00      -0.24    0.30   -0.45
#   6   -0.23   -0.36    0.03    0.15   -0.05    0.00    0.00      -0.46    1.11   -0.37
#   7    0.29   -0.15    0.01   -0.17   -0.04    0.00    0.00      -0.07   -1.70   -0.44
#   8   -1.23   -0.16    0.00    0.44    0.14    0.00    0.00      -0.81    7.24    2.32
#   9    0.99   -0.11    0.00   -0.47   -0.03    0.00    0.00       0.38   -9.25   -0.65
#  10   -1.00   -0.10    0.00    0.74    0.02    0.00    0.00      -0.34   12.81    0.32
#  11   -0.22   -0.10    0.00    0.11   -0.02    0.00    0.00      -0.23    2.96   -0.41
#  12   -0.10   -0.20    0.00    0.10   -0.03    0.00    0.00      -0.23    1.43   -0.39
#  13    1.27   -0.24    0.01   -0.48   -0.04    0.00    0.00       0.52   -3.66   -0.27
#  14   -8.20   -0.87    0.07    3.80    0.52    0.00    0.00      -4.68   14.15    1.92
#  15    0.18   -1.04    0.19   -0.25   -0.14    0.00    0.00      -1.06   -0.77   -0.43
#  16    3.33   -1.24    0.60   -1.00   -0.10    0.00    0.00       1.60   -3.13   -0.31
#  17   -0.37   -1.10    0.21    0.13   -0.09    0.00    0.00      -1.22    0.46   -0.32
#  18   -3.05   -1.15    0.18    0.89   -0.14    0.00    0.00      -3.26    2.77   -0.42
#  19   -1.24   -1.30    0.40    0.10   -0.17    0.00    0.00      -2.21    0.29   -0.47
#  20   -3.08   -1.90    1.44    1.32   -0.16    0.00    0.00      -2.37    3.51   -0.42
#  21    2.83   -1.16    0.16   -1.09   -0.11    0.00    0.00       0.63   -3.04   -0.31
#  22   -4.22   -1.60    0.39    3.82    0.14    0.00    0.00      -1.48   10.02    0.36
#  23    0.22   -1.56    0.50   -0.02    0.01    0.00    0.00      -0.85   -0.05    0.03
#  24   -4.16   -0.88    0.08    2.37   -0.12    0.00    0.00      -2.70    8.19   -0.41
#  25   19.92   -1.29    0.49   -5.54   -0.05    0.00    0.00      13.53  -19.44   -0.17
#  26  -24.09   -1.43    1.51    6.38   -0.07    0.00    0.00     -17.70   29.33   -0.31
#  27  -33.23   -2.93    3.90   12.64   -0.22    0.00    0.00     -19.83   33.79   -0.59
#  28   -0.27   -0.26    0.01    0.29   -0.04    0.00    0.00      -0.27    2.93   -0.36
#  29   -0.03   -0.18    0.00    0.08   -0.03    0.00    0.00      -0.16    1.19   -0.40
#  30   -0.08   -0.26    0.01    0.29   -0.05    0.00    0.00      -0.08    2.87   -0.46
#  31   -0.09   -0.16    0.00    0.05   -0.03    0.00    0.00      -0.22    0.85   -0.47
#  32   -0.08   -0.08    0.00    0.02   -0.01    0.00    0.00      -0.15    0.84   -0.47
#  33   -0.07   -0.06    0.00    0.01   -0.01    0.00    0.00      -0.13    0.56   -0.46
#  34   -0.05   -0.08    0.00    0.04   -0.01    0.00    0.00      -0.11    1.31   -0.40
#  35   -0.07   -0.06    0.00    0.00   -0.01    0.00    0.00      -0.14    0.13   -0.43
#  36   -0.11   -1.21    0.40    0.14   -0.12    0.00    0.00      -0.91    0.52   -0.45
#  37   -0.28   -1.62    0.73    0.41   -0.14    0.00    0.00      -0.91    1.34   -0.46
#  38    0.15   -0.83    1.52   -0.02   -0.10    0.00    0.00       0.72   -0.06   -0.28
#  39    0.12   -0.48    0.13   -0.03   -0.10    0.00    0.00      -0.36   -0.08   -0.26
#  40    0.12   -0.65    0.34   -0.04   -0.12    0.00    0.00      -0.35   -0.09   -0.26
#  41    0.11   -0.02    0.00   -0.01    0.00    0.00    0.00       0.08   -0.41   -0.22
#  42    0.13   -0.01    0.00   -0.01    0.00    0.00    0.00       0.10   -0.59   -0.28
#  43    0.11   -0.02    0.00   -0.01    0.00    0.00    0.00       0.08   -0.64   -0.28
#  44    0.17   -0.09    0.01   -0.09   -0.03    0.00    0.00      -0.03   -0.76   -0.28
#  45    0.61    0.00    0.00   -0.08    0.01    0.00    0.00       0.54   -2.92    0.44
#  46    1.38   -0.06    0.00   -0.03   -0.02    0.00    0.00       1.27   -0.45   -0.25
#  47    0.59   -0.09    0.01   -0.12   -0.02    0.00    0.00       0.38   -1.45   -0.22
#  48    0.74   -0.91    0.77   -0.54   -0.09    0.00    0.00      -0.03   -1.36   -0.22
#  49    0.91   -0.35    0.09   -0.28   -0.06    0.00    0.00       0.31   -1.15   -0.23
#  50    0.04   -0.16    0.01   -0.15   -0.05    0.00    0.00      -0.32   -0.90   -0.28
#  51    4.63   -0.44    0.41   -0.20   -0.04    0.00    0.00       4.36   -0.91   -0.20
#  52    0.53   -1.05    1.23   -0.49   -0.09    0.00    0.00       0.12   -1.41   -0.27
#  53    1.43   -0.29    0.06   -0.65   -0.07    0.00    0.00       0.48   -2.45   -0.28
#  54    1.07   -0.24    0.04   -0.51   -0.07    0.00    0.00       0.30   -1.92   -0.28
#  55    0.92   -0.60    0.54   -0.97   -0.09    0.00    0.00      -0.20   -2.48   -0.22
#  56    0.64   -0.96    0.86   -0.69   -0.11    0.00    0.00      -0.25   -1.73   -0.28
#  57    0.19   -0.92    0.97   -0.52   -0.11    0.00    0.00      -0.40   -1.26   -0.26
#  58    0.57   -0.17    0.01   -0.24   -0.05    0.00    0.00       0.12   -1.26   -0.26
#  59    0.82   -0.08    0.00   -0.17   -0.02    0.00    0.00       0.55   -2.40   -0.22
#  60    0.16   -0.09    0.01   -0.18   -0.03    0.00    0.00      -0.13   -1.88   -0.28
#  61    0.09   -0.03    0.00   -0.04   -0.01    0.00    0.00       0.01   -1.35   -0.28
#  62    0.07   -0.01    0.00   -0.01    0.00    0.00    0.00       0.04   -0.70   -0.28
#  63    0.08   -0.01    0.00   -0.01    0.00    0.00    0.00       0.06   -0.73   -0.28
#  64    0.11   -0.01    0.00   -0.01    0.00    0.00    0.00       0.09   -1.35   -0.22
#  65    0.34   -0.34    0.08   -0.32   -0.09    0.00    0.00      -0.33   -1.03   -0.28
#  66    0.31   -0.71    0.73   -0.38   -0.11    0.00    0.00      -0.16   -0.97   -0.28

@<TRIPOS>MOLECULE
      AVX101121_0        15
   66    69     0     0     0



@<TRIPOS>ATOM
      1 C1          7.4173   -14.9097     8.1351 C.3        1           0.0266
      2 O1          7.8808   -13.9438     9.0809 O.3        1          -0.3177
      3 C2          8.8751   -14.3318     9.9220 C.ar       1           0.1324
      4 C3          9.3692   -13.4465    10.8691 C.ar       1          -0.2111
      5 C4         10.3797   -13.8435    11.7232 C.ar       1          -0.0595
      6 C5         10.8992   -15.1218    11.6344 C.ar       1          -0.1442
      7 C6         12.0021   -15.5521    12.5670 C.3        1           0.1665
      8 N1         13.3005   -15.2460    11.9617 N.am       1          -0.7280
      9 C7         14.4381   -15.5449    12.6199 C.2        1           0.5588
     10 O2         14.3865   -16.0685    13.7158 O.2        1          -0.5233
     11 C8         15.7480   -15.2363    12.0095 C.ar       1          -0.1222
     12 C9         16.3785   -16.1904    11.1907 C.ar       1          -0.0224
     13 C10        15.7095   -17.5183    10.9450 C.3        1           0.1101
     14 N2         15.7906   -17.8506     9.5165 N.3        1          -0.5108
     15 C11        14.7619   -17.1349     8.7503 C.3        1           0.0180
     16 C12        15.6895   -19.3010     9.3069 C.3        1           0.1076
     17 C13        17.0246   -19.9429     9.5838 C.ar       1          -0.0138
     18 C14        18.1785   -19.3759     9.0892 C.ar       1          -0.1741
     19 C15        19.4090   -19.9611     9.3408 C.ar       1          -0.0927
     20 C16        19.4931   -21.1182    10.0893 C.ar       1          -0.2347
     21 C17        18.3426   -21.7042    10.5955 C.ar       1           0.1502
     22 O3         18.4237   -22.8409    11.3305 O.3        1          -0.2674
     23 C18        18.5816   -22.6905    12.7428 C.3        1           0.0229
     24 C19        17.0946   -21.1119    10.3481 C.ar       1          -0.1467
     25 C20        15.8668   -21.7202    10.8851 C.2        1           0.5247
     26 O4         15.4534   -21.3916    11.9886 O.co2      1          -0.6652
     27 O5         15.2594   -22.5544    10.2278 O.co2      1          -0.6800
     28 C21        17.5816   -15.9306    10.6188 C.ar       1          -0.0779
     29 C22        18.2147   -14.6938    10.8419 C.ar       1          -0.0314
     30 C23        19.4599   -14.4020    10.2607 C.ar       1          -0.0986
     31 C24        20.0480   -13.1965    10.4944 C.ar       1          -0.1181
     32 C25        19.4337   -12.2430    11.3041 C.ar       1          -0.1239
     33 C26        18.2276   -12.4895    11.8843 C.ar       1          -0.1042
     34 C27        17.5891   -13.7236    11.6653 C.ar       1          -0.0667
     35 C28        16.3426   -14.0076    12.2432 C.ar       1          -0.0778
     36 C29        10.4084   -16.0061    10.6917 C.ar       1          -0.0585
     37 C30         9.3942   -15.6157     9.8387 C.ar       1          -0.1530
     38 H1          6.6253   -14.4721     7.5274 H          1           0.1001
     39 H2          8.2431   -15.2135     7.4918 H          1           0.0562
     40 H3          7.0300   -15.7801     8.6648 H          1           0.0559
     41 H4          8.9642   -12.4477    10.9384 H          1           0.1289
     42 H5         10.7646   -13.1548    12.4606 H          1           0.1275
     43 H6         11.9071   -15.0184    13.5127 H          1           0.0783
     44 H7         11.9285   -16.6247    12.7463 H          1           0.0756
     45 H8         13.3417   -14.8282    11.0873 H          1           0.3989
     46 H9         16.2115   -18.2912    11.5270 H          1           0.0984
     47 H10        14.6634   -17.4590    11.2455 H          1           0.0569
     48 H11        14.8444   -17.3991     7.6960 H          1           0.0588
     49 H12        13.7746   -17.4140     9.1185 H          1           0.0653
     50 H13        14.9030   -16.0604     8.8677 H          1           0.0154
     51 H14        14.9406   -19.7144     9.9823 H          1           0.1219
     52 H15        15.3979   -19.4996     8.2756 H          1           0.0147
     53 H16        18.1237   -18.4711     8.5022 H          1           0.1093
     54 H17        20.3081   -19.5094     8.9484 H          1           0.1108
     55 H18        20.4562   -21.5678    10.2808 H          1           0.1158
     56 H19        18.6328   -23.6742    13.2095 H          1           0.0918
     57 H20        19.5008   -22.1422    12.9491 H          1           0.0440
     58 H21        17.7319   -22.1403    13.1468 H          1           0.0440
     59 H22        18.0534   -16.6733     9.9926 H          1           0.1539
     60 H23        19.9488   -15.1309     9.6314 H          1           0.1297
     61 H24        21.0053   -12.9760    10.0458 H          1           0.1206
     62 H25        19.9221   -11.2948    11.4739 H          1           0.1190
     63 H26        17.7632   -11.7416    12.5098 H          1           0.1227
     64 H27        15.8531   -13.2760    12.8689 H          1           0.1247
     65 H28        10.8155   -17.0042    10.6245 H          1           0.1342
     66 H29         9.0086   -16.3080     9.1050 H          1           0.1328
@<TRIPOS>BOND
     1    1    2 1
     2    1   38 1
     3    1   39 1
     4    1   40 1
     5    2    3 1
     6    3   37 ar
     7    3    4 ar
     8    4    5 ar
     9    4   41 1
    10    5    6 ar
    11    5   42 1
    12    6    7 1
    13    6   36 ar
    14    7    8 1
    15    7   43 1
    16    7   44 1
    17    8    9 am
    18    8   45 1
    19    9   10 2
    20    9   11 1
    21   11   35 ar
    22   11   12 ar
    23   12   13 1
    24   12   28 ar
    25   13   14 1
    26   13   46 1
    27   13   47 1
    28   14   15 1
    29   14   16 1
    30   15   48 1
    31   15   49 1
    32   15   50 1
    33   16   17 1
    34   16   51 1
    35   16   52 1
    36   17   24 ar
    37   17   18 ar
    38   18   19 ar
    39   18   53 1
    40   19   20 ar
    41   19   54 1
    42   20   21 ar
    43   20   55 1
    44   21   22 1
    45   21   24 ar
    46   22   23 1
    47   23   56 1
    48   23   57 1
    49   23   58 1
    50   24   25 1
    51   25   26 1
    52   25   27 2
    53   28   29 ar
    54   28   59 1
    55   29   34 ar
    56   29   30 ar
    57   30   31 ar
    58   30   60 1
    59   31   32 ar
    60   31   61 1
    61   32   33 ar
    62   32   62 1
    63   33   34 ar
    64   33   63 1
    65   34   35 ar
    66   35   64 1
    67   36   37 ar
    68   36   65 1
    69   37   66 1
