AVX17257_0, 3
##########                 Name:           AVX17257_0
##########          Protonation:                  100
##########               SMILES:   c1ccc2c(c1)CC(=O)N2Cc3ccccc3C(=O)[O-]
##########            Long Name:   2-[(2-oxoindolin-1-yl)methyl]benzoate
##########          FlexRecCode: 1
##########               Number:                  420
##########   Ligand Source File: /raid1/people/rgc/Examples/sampl4/screening/ligands/build_1//sampl4-hivint-00000
##########           GlobalRank: 66
##########                 Rank:                    1
##########               Setnum:                    6
##########             Matchnum:                18036
##########                Cloud:                    1
##########        Electrostatic:           -38.338528
##########        Van der Waals:           -17.982216
##########  Ligand Polar Desolv:            19.927044
########## Ligand Apolar Desolv:            -2.904211
##########      Internal Energy:             0.000000
##########      Receptor Energy: 0.0
########## Receptor Desolvation:             0.000000
########## Receptor Hydrophobic:             0.000000
##########         Total Energy: -39.3
##########        Ligand Charge:            -1.000000
##########            Arbitrary:    +999.9990
##########     heavy atom count:   20
##########           pose count:    1
##########        Ligand Energy:             0.000000
# num electro vdwattr vdwrepu polsolv apolsol rdesolv rhydroe totalscore fullpol fullapo
#   1  -20.83   -1.00    0.15   10.13   -0.13    0.00    0.00     -11.68   30.93   -0.40
#   2   18.90   -1.26    0.44   -5.33   -0.05    0.00    0.00      12.70  -18.36   -0.17
#   3  -30.84   -1.94    1.05   10.08   -0.11    0.00    0.00     -21.77   29.32   -0.33
#   4   -3.72   -0.94    0.47    1.37   -0.08    0.00    0.00      -2.91    6.67   -0.41
#   5   -1.45   -0.67    0.24    0.41   -0.07    0.00    0.00      -1.55    2.53   -0.46
#   6   -1.45   -0.40    0.04    0.24   -0.07    0.00    0.00      -1.65    1.59   -0.47
#   7   -1.31   -0.51    0.05    0.16   -0.09    0.00    0.00      -1.69    0.89   -0.47
#   8   -2.07   -0.60    0.08    0.45   -0.08    0.00    0.00      -2.23    2.33   -0.42
#   9   -1.84   -0.69    0.09    0.49   -0.09    0.00    0.00      -2.04    2.27   -0.41
#  10    5.76   -0.74    0.15   -1.62   -0.10    0.00    0.00       3.46   -5.31   -0.32
#  11  -14.16   -1.01    0.11    3.44    0.28    0.00    0.00     -11.35   11.04    0.89
#  12   12.07   -1.29    0.36   -2.63   -0.18    0.00    0.00       8.33   -8.68   -0.59
#  13  -12.53   -1.23    0.20    4.13    0.13    0.00    0.00      -9.30   13.63    0.42
#  14   -1.54   -0.99    0.22    0.20   -0.11    0.00    0.00      -2.22    0.57   -0.30
#  15   -2.02   -1.36    0.27    0.44   -0.16    0.00    0.00      -2.84    1.16   -0.43
#  16   -0.62   -1.64    0.47    0.06   -0.20    0.00    0.00      -1.94    0.13   -0.47
#  17   -0.95   -2.03    0.65    0.21   -0.25    0.00    0.00      -2.37    0.40   -0.47
#  18   -0.55   -3.05    1.60    0.39   -0.24    0.00    0.00      -1.85    0.77   -0.47
#  19   -1.75   -2.16    0.75    1.19   -0.20    0.00    0.00      -2.17    2.69   -0.45
#  20    2.79   -1.24    0.21   -0.39   -0.27    0.00    0.00       1.10   -1.01   -0.70
#  21    1.81   -0.10    0.02   -0.25   -0.02    0.00    0.00       1.44   -2.66   -0.26
#  22    0.66   -0.05    0.00   -0.10   -0.01    0.00    0.00       0.50   -2.41   -0.28
#  23    0.73   -0.11    0.02   -0.23   -0.03    0.00    0.00       0.36   -2.07   -0.28
#  24    1.47   -0.15    0.04   -0.31   -0.03    0.00    0.00       1.02   -2.47   -0.21
#  25    3.62   -0.22    0.02   -0.40   -0.05    0.00    0.00       2.97   -1.82   -0.22
#  26    5.57   -0.68    1.76   -0.24   -0.06    0.00    0.00       6.36   -1.01   -0.25
#  27    1.54   -0.79    0.60   -0.47   -0.11    0.00    0.00       0.77   -1.14   -0.28
#  28    0.96   -0.18    0.03   -0.17   -0.05    0.00    0.00       0.58   -1.06   -0.28
#  29    0.94   -0.31    0.04   -0.06   -0.09    0.00    0.00       0.52   -0.19   -0.28
#  30    0.38   -0.32    0.03   -0.12   -0.13    0.00    0.00      -0.15   -0.26   -0.28
#  31    0.26   -1.00    0.86   -0.63   -0.16    0.00    0.00      -0.67   -1.13   -0.28
#  32    1.84   -0.53    0.24   -0.49   -0.10    0.00    0.00       0.97   -1.38   -0.27

@<TRIPOS>MOLECULE
       AVX17257_0       100
   32    34     0     0     0



@<TRIPOS>ATOM
      1 O1         14.2234   -23.7748    12.8207 O.co2      1          -0.6828
      2 C1         14.9293   -23.1003    12.0844 C.2        1           0.5203
      3 O2         14.9484   -23.3242    10.8822 O.co2      1          -0.6830
      4 C2         15.7534   -22.0128    12.6454 C.ar       1          -0.1302
      5 C3         15.7385   -21.7578    14.0192 C.ar       1          -0.0823
      6 C4         16.5117   -20.7399    14.5367 C.ar       1          -0.1405
      7 C5         17.3007   -19.9714    13.6987 C.ar       1          -0.1250
      8 C6         17.3205   -20.2181    12.3374 C.ar       1          -0.1284
      9 C7         16.5567   -21.2365    11.8064 C.ar       1          -0.0711
     10 C8         16.5844   -21.5077    10.3244 C.3        1           0.1681
     11 N1         17.4965   -20.5648     9.6723 N.am       1          -0.5481
     12 C9         17.1202   -19.3655     9.1975 C.2        1           0.5198
     13 O3         16.0034   -18.8940     9.2346 O.2        1          -0.4976
     14 C10        18.3527   -18.7133     8.6078 C.3        1          -0.1132
     15 C11        19.4486   -19.7297     8.8308 C.ar       1          -0.1523
     16 C12        20.7911   -19.7414     8.5257 C.ar       1          -0.0686
     17 C13        21.5654   -20.8386     8.8600 C.ar       1          -0.1507
     18 C14        20.9867   -21.9197     9.4997 C.ar       1          -0.0839
     19 C15        19.6419   -21.9107     9.8061 C.ar       1          -0.1351
     20 C16        18.8569   -20.8067     9.4784 C.ar       1           0.1588
     21 H1         15.1226   -22.3564    14.6742 H          1           0.1276
     22 H2         16.5012   -20.5418    15.5983 H          1           0.1145
     23 H3         17.9037   -19.1751    14.1093 H          1           0.1116
     24 H4         17.9384   -19.6141    11.6893 H          1           0.1059
     25 H5         16.9281   -22.5270    10.1478 H          1           0.1096
     26 H6         15.5819   -21.3862     9.9140 H          1           0.1139
     27 H7         18.2142   -18.5284     7.5425 H          1           0.1192
     28 H8         18.5807   -17.7846     9.1310 H          1           0.1183
     29 H9         21.2394   -18.8955     8.0257 H          1           0.1245
     30 H10        22.6187   -20.8508     8.6216 H          1           0.1250
     31 H11        21.5911   -22.7759     9.7605 H          1           0.1276
     32 H12        19.1972   -22.7588    10.3054 H          1           0.1281
@<TRIPOS>BOND
     1    1    2 1
     2    2    3 2
     3    2    4 1
     4    4    9 ar
     5    4    5 ar
     6    5    6 ar
     7    5   21 1
     8    6    7 ar
     9    6   22 1
    10    7    8 ar
    11    7   23 1
    12    8    9 ar
    13    8   24 1
    14    9   10 1
    15   10   11 1
    16   10   25 1
    17   10   26 1
    18   11   20 1
    19   11   12 am
    20   12   13 2
    21   12   14 1
    22   14   15 1
    23   14   27 1
    24   14   28 1
    25   15   20 ar
    26   15   16 ar
    27   16   17 ar
    28   16   29 1
    29   17   18 ar
    30   17   30 1
    31   18   19 ar
    32   18   31 1
    33   19   20 ar
    34   19   32 1
