AVX17715_0, 3
##########                 Name:           AVX17715_0
##########          Protonation:                   93
##########               SMILES:   COc1ccc(cc1)CNC(=O)c2ccccc2C[NH2+]Cc3ccc4c(c3C(=O)[O-])OCO4
##########            Long Name:   )methylcarbamoyl]phenyl]methylammonio]methyl]-1,3-benzodioxole-4-carboxylate
##########          FlexRecCode: 1
##########               Number:                  358
##########   Ligand Source File: /raid1/people/rgc/Examples/sampl4/screening/ligands/build_1//sampl4-hivint-00000
##########           GlobalRank: 17
##########                 Rank:                    1
##########               Setnum:                  208
##########             Matchnum:                19646
##########                Cloud:                    1
##########        Electrostatic:           -36.216309
##########        Van der Waals:           -18.603382
##########  Ligand Polar Desolv:            12.251676
########## Ligand Apolar Desolv:            -1.877457
##########      Internal Energy:             0.000000
##########      Receptor Energy: 0.0
########## Receptor Desolvation:             0.000000
########## Receptor Hydrophobic:             0.000000
##########         Total Energy: -44.45
##########        Ligand Charge:             0.000000
##########            Arbitrary:    +999.9990
##########     heavy atom count:   33
##########           pose count:    1
##########        Ligand Energy:             0.000000
# num electro vdwattr vdwrepu polsolv apolsol rdesolv rhydroe totalscore fullpol fullapo
#   1    0.01   -1.06    0.36    0.01    0.01    0.00    0.00      -0.67    0.04    0.03
#   2   -0.69   -2.71    1.63    0.02    0.34    0.00    0.00      -1.42    0.06    0.93
#   3    0.24   -1.94    1.00    0.03   -0.09    0.00    0.00      -0.76    0.09   -0.31
#   4   -0.16   -1.88    0.63   -0.28   -0.15    0.00    0.00      -1.84   -0.79   -0.42
#   5   -0.04   -0.80    0.09   -0.09   -0.12    0.00    0.00      -0.96   -0.34   -0.45
#   6   -0.16   -0.34    0.02   -0.11   -0.04    0.00    0.00      -0.63   -0.95   -0.37
#   7    0.17   -0.10    0.00    0.09   -0.03    0.00    0.00       0.13    1.53   -0.44
#   8   -0.72   -0.10    0.00   -0.24    0.08    0.00    0.00      -0.97   -6.67    2.32
#   9    0.66   -0.16    0.00    0.30   -0.04    0.00    0.00       0.76    4.96   -0.63
#  10   -0.54   -0.39    0.04   -0.67    0.04    0.00    0.00      -1.52   -4.96    0.29
#  11   -0.20   -0.11    0.00   -0.04   -0.02    0.00    0.00      -0.36   -1.00   -0.41
#  12   -0.12   -0.06    0.00   -0.02   -0.01    0.00    0.00      -0.21   -0.68   -0.44
#  13   -0.16   -0.07    0.00   -0.02   -0.01    0.00    0.00      -0.27   -0.77   -0.47
#  14   -0.18   -0.20    0.02   -0.04   -0.04    0.00    0.00      -0.43   -0.55   -0.47
#  15   -0.23   -0.34    0.06   -0.06   -0.05    0.00    0.00      -0.62   -0.58   -0.44
#  16   -0.19   -0.20    0.01   -0.05   -0.03    0.00    0.00      -0.46   -0.58   -0.37
#  17    0.18   -0.22    0.01    0.06   -0.05    0.00    0.00      -0.02    0.45   -0.35
#  18   -3.36   -0.63    0.08   -0.81    0.15    0.00    0.00      -4.57   -3.46    0.65
#  19    1.05   -0.01    0.00    0.76    0.08    0.00    0.00       1.88    4.45    0.44
#  20    6.18   -0.01    0.00    0.21    0.07    0.00    0.00       6.45    1.35    0.44
#  21    0.29   -1.36    0.90    0.12   -0.11    0.00    0.00      -0.15    0.40   -0.35
#  22   -1.52   -1.03    0.12   -0.03   -0.11    0.00    0.00      -2.57   -0.10   -0.37
#  23   -0.86   -1.41    0.36   -0.11   -0.13    0.00    0.00      -2.15   -0.36   -0.45
#  24   -1.07   -1.47    0.34   -0.06   -0.15    0.00    0.00      -2.40   -0.18   -0.47
#  25    0.62   -0.92    0.08    0.00   -0.10    0.00    0.00      -0.32    0.00   -0.33
#  26   -4.92   -0.92    0.23    0.55    0.15    0.00    0.00      -4.91    1.94    0.52
#  27    4.98   -0.61    0.04   -0.42    0.01    0.00    0.00       3.99   -1.20    0.02
#  28   -9.58   -0.92    0.12    1.54    0.11    0.00    0.00      -8.73    4.85    0.34
#  29    2.10   -0.82    0.05   -0.01   -0.10    0.00    0.00       1.23   -0.04   -0.32
#  30   -2.82   -0.91    0.07    0.50   -0.13    0.00    0.00      -3.29    1.61   -0.41
#  31   18.43   -1.52    0.39   -3.06   -0.06    0.00    0.00      14.18   -8.08   -0.15
#  32  -27.15   -3.08    2.98    4.01   -0.13    0.00    0.00     -23.36    8.89   -0.29
#  33  -26.13   -1.75    0.61    7.43   -0.22    0.00    0.00     -20.06   18.72   -0.56
#  34   -0.06   -0.33    0.03   -0.03   -0.05    0.00    0.00      -0.44   -0.29   -0.45
#  35   -0.16   -0.76    0.17   -0.07   -0.09    0.00    0.00      -0.92   -0.37   -0.46
#  36   -0.02   -0.32    0.06    0.16   -0.08    0.00    0.00      -0.20    0.55   -0.28
#  37   -0.04   -0.34    0.31    0.06   -0.05    0.00    0.00      -0.06    0.35   -0.27
#  38    0.08   -0.22    0.07    0.05   -0.05    0.00    0.00      -0.07    0.31   -0.26
#  39   -0.11   -0.64    0.22    0.30   -0.10    0.00    0.00      -0.33    0.70   -0.22
#  40   -0.39   -0.20    0.03    0.21   -0.05    0.00    0.00      -0.38    1.30   -0.28
#  41    0.09   -0.04    0.00    0.03   -0.01    0.00    0.00       0.07    0.71   -0.28
#  42    0.08   -0.02    0.00    0.01    0.00    0.00    0.00       0.08    0.91   -0.28
#  43    0.39    0.00    0.00    0.05    0.01    0.00    0.00       0.45    4.35    0.43
#  44    0.16   -0.01    0.00    0.02    0.00    0.00    0.00       0.17    1.83   -0.22
#  45    0.19   -0.01    0.00    0.01    0.00    0.00    0.00       0.19    1.30   -0.28
#  46    0.29   -0.05    0.00    0.04   -0.02    0.00    0.00       0.28    0.74   -0.28
#  47    0.51   -0.18    0.10    0.06   -0.03    0.00    0.00       0.45    0.46   -0.28
#  48    0.95   -0.06    0.00    0.04   -0.01    0.00    0.00       0.92    0.91   -0.28
#  49    0.29   -0.07    0.00    0.10   -0.01    0.00    0.00       0.31    1.84   -0.21
#  50   -0.42   -0.56    0.41    0.03   -0.06    0.00    0.00      -0.61    0.11   -0.21
#  51    0.63   -1.18    3.73    0.77   -0.09    0.00    0.00       3.85    2.43   -0.28
#  52    0.73   -0.39    0.22    0.67   -0.07    0.00    0.00       1.17    2.81   -0.28
#  53    0.97   -0.46    0.21    0.32   -0.09    0.00    0.00       0.95    1.00   -0.28
#  54    3.40   -0.17    0.01   -0.08   -0.04    0.00    0.00       3.12   -0.50   -0.28
#  55    1.84   -0.26    0.03   -0.11   -0.08    0.00    0.00       1.42   -0.39   -0.28
#  56    0.12   -0.03    0.00    0.03   -0.01    0.00    0.00       0.11    1.09   -0.28
#  57    0.13   -0.09    0.01    0.02   -0.03    0.00    0.00       0.04    0.20   -0.28

@<TRIPOS>MOLECULE
       AVX17715_0        93
   57    60     0     0     0



@<TRIPOS>ATOM
      1 C1         21.1483   -25.7770    19.8195 C.3        1           0.0249
      2 O1         20.1789   -26.3093    18.9144 O.3        1          -0.3151
      3 C2         18.8732   -26.2019    19.2756 C.ar       1           0.1421
      4 C3         17.8796   -26.7024    18.4467 C.ar       1          -0.2108
      5 C4         16.5530   -26.5925    18.8164 C.ar       1          -0.0565
      6 C5         16.2153   -25.9838    20.0111 C.ar       1          -0.1594
      7 C6         14.7674   -25.8647    20.4115 C.3        1           0.1654
      8 N1         14.2206   -24.6063    19.8981 N.am       1          -0.7092
      9 C7         13.6522   -24.5673    18.6766 C.2        1           0.5605
     10 O2         13.5932   -25.5761    18.0012 O.2        1          -0.5535
     11 C8         13.1005   -23.2973    18.1582 C.ar       1          -0.1270
     12 C9         12.0793   -22.6429    18.8492 C.ar       1          -0.0839
     13 C10        11.5692   -21.4582    18.3603 C.ar       1          -0.1021
     14 C11        12.0673   -20.9185    17.1874 C.ar       1          -0.0853
     15 C12        13.0794   -21.5620    16.4979 C.ar       1          -0.0908
     16 C13        13.6023   -22.7447    16.9791 C.ar       1          -0.0878
     17 C14        14.7087   -23.4414    16.2296 C.3        1           0.0415
     18 N2         14.1280   -24.3744    15.2548 N.4        1          -0.4814
     19 H1         13.5661   -25.0591    15.7381 H          1           0.4089
     20 H2         13.5503   -23.8640    14.6038 H          1           0.4277
     21 C15        15.2065   -25.0533    14.5242 C.3        1           0.0578
     22 C16        16.0456   -24.0306    13.8024 C.ar       1          -0.1185
     23 C17        17.1395   -23.4727    14.4261 C.ar       1          -0.0986
     24 C18        17.9165   -22.5323    13.7696 C.ar       1          -0.1053
     25 C19        17.6028   -22.1418    12.4788 C.ar       1           0.0383
     26 O3         18.1988   -21.2509    11.6329 O.3        1          -0.3092
     27 C20        17.6916   -21.5677    10.3230 C.3        1           0.2036
     28 O4         16.4041   -22.1553    10.5882 O.3        1          -0.2718
     29 C21        16.5000   -22.6962    11.8340 C.ar       1           0.0790
     30 C22        15.7171   -23.6515    12.4960 C.ar       1          -0.1121
     31 C23        14.5525   -24.2488    11.8230 C.2        1           0.5216
     32 O5         14.6847   -25.2709    11.1638 O.co2      1          -0.6990
     33 O6         13.4523   -23.7233    11.9228 O.co2      1          -0.6336
     34 C24        17.2038   -25.4846    20.8390 C.ar       1          -0.0575
     35 C25        18.5320   -25.5967    20.4765 C.ar       1          -0.1537
     36 H3         22.1477   -25.9279    19.4115 H          1           0.1040
     37 H4         20.9694   -24.7107    19.9577 H          1           0.0577
     38 H5         21.0671   -26.2866    20.7798 H          1           0.0582
     39 H6         18.1430   -27.1773    17.5132 H          1           0.1321
     40 H7         15.7792   -26.9819    18.1715 H          1           0.1276
     41 H8         14.2054   -26.7013    19.9963 H          1           0.0835
     42 H9         14.6888   -25.8781    21.4987 H          1           0.0823
     43 H10        14.2677   -23.8012    20.4370 H          1           0.4055
     44 H11        11.6892   -23.0635    19.7641 H          1           0.1327
     45 H12        10.7791   -20.9508    18.8939 H          1           0.1385
     46 H13        11.6641   -19.9910    16.8086 H          1           0.1401
     47 H14        13.4635   -21.1357    15.5829 H          1           0.1473
     48 H15        15.3159   -22.7017    15.7077 H          1           0.1360
     49 H16        15.3329   -23.9927    16.9329 H          1           0.1527
     50 H17        15.8308   -25.6046    15.2274 H          1           0.1671
     51 H18        14.7756   -25.7456    13.8009 H          1           0.1194
     52 H19        17.3928   -23.7700    15.4330 H          1           0.1411
     53 H20        18.7720   -22.1008    14.2678 H          1           0.1384
     54 H21        17.5840   -20.6629     9.7247 H          1           0.1343
     55 H22        18.3437   -22.2836     9.8226 H          1           0.0847
     56 H23        16.9373   -25.0100    21.7719 H          1           0.1323
     57 H24        19.3038   -25.2100    21.1252 H          1           0.1351
@<TRIPOS>BOND
     1    1    2 1
     2    1   36 1
     3    1   37 1
     4    1   38 1
     5    2    3 1
     6    3   35 ar
     7    3    4 ar
     8    4    5 ar
     9    4   39 1
    10    5    6 ar
    11    5   40 1
    12    6    7 1
    13    6   34 ar
    14    7    8 1
    15    7   41 1
    16    7   42 1
    17    8    9 am
    18    8   43 1
    19    9   10 2
    20    9   11 1
    21   11   16 ar
    22   11   12 ar
    23   12   13 ar
    24   12   44 1
    25   13   14 ar
    26   13   45 1
    27   14   15 ar
    28   14   46 1
    29   15   16 ar
    30   15   47 1
    31   16   17 1
    32   17   18 1
    33   17   48 1
    34   17   49 1
    35   18   19 1
    36   18   20 1
    37   18   21 1
    38   21   22 1
    39   21   50 1
    40   21   51 1
    41   22   30 ar
    42   22   23 ar
    43   23   24 ar
    44   23   52 1
    45   24   25 ar
    46   24   53 1
    47   25   29 ar
    48   25   26 1
    49   26   27 1
    50   27   28 1
    51   27   54 1
    52   27   55 1
    53   28   29 1
    54   29   30 ar
    55   30   31 1
    56   31   32 1
    57   31   33 2
    58   34   35 ar
    59   34   56 1
    60   35   57 1
