AVX101124_1, 3
##########                 Name:          AVX101124_0
##########          Protonation:                  100
##########               SMILES:   c1ccc\2c(c1)C[C@@H](/C2=C\c3ccc4c(c3C(=O)[O-])OCO4)NC(=O)CCCCC[NH3+]
##########            Long Name:   zaniumylhexanoylamino)indan-1-ylidene]methyl]-1,3-benzodioxole-4-carboxylate
##########          FlexRecCode: 1
##########               Number:                  690
##########   Ligand Source File: /raid1/people/rgc/Examples/sampl4/screening/ligands/build_1//sampl4-hivint-00000
##########           GlobalRank: 106
##########                 Rank:                    1
##########               Setnum:                    3
##########             Matchnum:                 3877
##########                Cloud:                    1
##########        Electrostatic:           -30.872988
##########        Van der Waals:           -20.636391
##########  Ligand Polar Desolv:            20.805912
########## Ligand Apolar Desolv:            -1.663373
##########      Internal Energy:             0.000000
##########      Receptor Energy: 0.0
########## Receptor Desolvation:             0.000000
########## Receptor Hydrophobic:             0.000000
##########         Total Energy: -32.37
##########        Ligand Charge:             0.000000
##########            Arbitrary:    +999.9990
##########     heavy atom count:   31
##########           pose count:    1
##########        Ligand Energy:             0.000000
# num electro vdwattr vdwrepu polsolv apolsol rdesolv rhydroe totalscore fullpol fullapo
#   1   -1.22   -1.11    0.31   -5.47    0.24    0.00    0.00      -7.24  -19.41    0.86
#   2    1.66   -0.05    0.00    5.64    0.21    0.00    0.00       7.46   15.93    0.60
#   3    0.66   -0.02    0.00    2.61    0.10    0.00    0.00       3.35   14.85    0.58
#   4    1.78   -0.01    0.00    2.11    0.08    0.00    0.00       3.97   15.20    0.58
#   5   -0.01   -0.63    0.11    0.16   -0.11    0.00    0.00      -0.49    0.70   -0.49
#   6   -0.15   -0.16    0.00   -0.27   -0.02    0.00    0.00      -0.60   -2.85   -0.24
#   7   -0.28   -0.10    0.00   -0.07   -0.01    0.00    0.00      -0.46   -1.42   -0.22
#   8   -0.58   -0.14    0.00   -0.04   -0.01    0.00    0.00      -0.77   -0.47   -0.19
#   9   -0.91   -0.14    0.01   -0.01   -0.02    0.00    0.00      -1.08   -0.09   -0.24
#  10    5.14   -0.36    0.03   -0.27   -0.09    0.00    0.00       4.44   -1.90   -0.65
#  11   -4.78   -0.74    0.24    0.53    0.07    0.00    0.00      -4.69    2.99    0.38
#  12   -9.79   -0.54    0.18    0.65    0.27    0.00    0.00      -9.23    4.47    1.88
#  13    2.59   -0.33    0.03   -0.25   -0.04    0.00    0.00       1.99   -1.27   -0.20
#  14   -0.66   -0.27    0.02    0.04   -0.04    0.00    0.00      -0.92    0.25   -0.28
#  15   -0.96   -0.42    0.04    0.07   -0.06    0.00    0.00      -1.33    0.49   -0.44
#  16   -0.52   -0.29    0.01    0.04   -0.05    0.00    0.00      -0.81    0.33   -0.47
#  17   -0.59   -0.41    0.02    0.06   -0.08    0.00    0.00      -1.00    0.32   -0.47
#  18   -1.65   -0.87    0.13    0.25   -0.13    0.00    0.00      -2.26    0.93   -0.47
#  19   -2.45   -1.14    0.40    0.44   -0.13    0.00    0.00      -2.87    1.57   -0.47
#  20   -0.77   -0.82    0.31    0.24   -0.09    0.00    0.00      -1.13    1.23   -0.43
#  21   -3.51   -0.69    0.12    0.22   -0.08    0.00    0.00      -3.95    0.98   -0.38
#  22    0.25   -0.81    0.06    0.41   -0.11    0.00    0.00      -0.20    1.43   -0.37
#  23   -0.64   -0.90    0.06   -0.03   -0.12    0.00    0.00      -1.63   -0.09   -0.37
#  24   -1.61   -2.15    0.76    0.35   -0.15    0.00    0.00      -2.81    0.88   -0.39
#  25   -1.03   -2.84    1.84    0.12   -0.20    0.00    0.00      -2.11    0.27   -0.47
#  26    0.10   -1.67    0.77   -0.10   -0.13    0.00    0.00      -1.03   -0.25   -0.33
#  27   -3.14   -1.33    0.34    0.94    0.23    0.00    0.00      -2.96    2.21    0.53
#  28    1.86   -0.92    0.16   -0.55    0.01    0.00    0.00       0.55   -1.46    0.02
#  29   -4.23   -1.13    0.15    2.18    0.12    0.00    0.00      -2.91    6.07    0.34
#  30    1.37   -1.05    0.14   -0.24   -0.11    0.00    0.00       0.11   -0.72   -0.32
#  31   -2.72   -0.85    0.07    1.21   -0.12    0.00    0.00      -2.41    4.25   -0.41
#  32   18.14   -1.39    0.71   -4.17   -0.05    0.00    0.00      13.24  -14.72   -0.17
#  33  -19.53   -1.33    0.31    6.96   -0.10    0.00    0.00     -13.70   23.03   -0.33
#  34  -29.41   -2.23    2.22    8.06   -0.17    0.00    0.00     -21.53   25.65   -0.55
#  35    0.66   -0.16    0.02    0.59   -0.05    0.00    0.00       1.06    3.65   -0.28
#  36    0.13   -0.40    0.16    0.75   -0.07    0.00    0.00       0.57    3.10   -0.28
#  37    0.08   -0.04    0.00    0.05   -0.01    0.00    0.00       0.08    1.55   -0.28
#  38    0.09   -0.03    0.00    0.06   -0.01    0.00    0.00       0.10    2.04   -0.28
#  39    0.09   -0.01    0.00    0.02    0.00    0.00    0.00       0.09    1.05   -0.28
#  40    0.17   -0.03    0.00    0.02   -0.01    0.00    0.00       0.14    0.52   -0.28
#  41    0.70   -0.06    0.00    0.00   -0.01    0.00    0.00       0.64    0.09   -0.28
#  42    0.29   -0.04    0.00    0.02   -0.01    0.00    0.00       0.25    0.33   -0.28
#  43    0.30   -0.02    0.00    0.01   -0.01    0.00    0.00       0.28    0.36   -0.28
#  44    0.58   -0.07    0.01   -0.01   -0.02    0.00    0.00       0.49   -0.13   -0.28
#  45    5.61   -0.02    0.00   -0.42    0.08    0.00    0.00       5.24   -3.22    0.58
#  46    1.15   -0.15    0.02   -0.09   -0.03    0.00    0.00       0.90   -0.65   -0.18
#  47    0.49   -0.16    0.04   -0.03   -0.04    0.00    0.00       0.30   -0.25   -0.28
#  48    0.40   -0.04    0.00   -0.01   -0.01    0.00    0.00       0.34   -0.29   -0.27
#  49    0.26   -0.03    0.00    0.00   -0.01    0.00    0.00       0.22    0.06   -0.28
#  50    0.25   -0.05    0.00    0.00   -0.01    0.00    0.00       0.19    0.00   -0.28
#  51    2.24   -0.28    0.12   -0.19   -0.07    0.00    0.00       1.82   -0.75   -0.28
#  52    4.33   -0.25    0.05   -0.32   -0.07    0.00    0.00       3.74   -1.31   -0.28
#  53    5.63   -0.21    0.02   -0.39   -0.04    0.00    0.00       5.02   -1.96   -0.21
#  54    1.41   -0.88    0.86   -0.45   -0.07    0.00    0.00       0.88   -1.15   -0.19
#  55    0.51   -0.89    0.57   -0.25   -0.13    0.00    0.00      -0.20   -0.53   -0.28
#  56    0.81   -0.20    0.04   -0.10   -0.05    0.00    0.00       0.50   -0.53   -0.28
#  57    0.57   -0.60    0.38   -0.25   -0.11    0.00    0.00       0.00   -0.65   -0.28

@<TRIPOS>MOLECULE
      AVX101124_0       100
   57    60     0     0     0



@<TRIPOS>ATOM
      1 N1         15.4260   -15.8000     8.4446 N.4        1          -0.6382
      2 H1         15.3861   -16.3888     7.6262 H          1           0.4365
      3 H2         14.9679   -14.9223     8.2500 H          1           0.4353
      4 H3         14.9601   -16.2594     9.2126 H          1           0.4344
      5 C1         16.8292   -15.5515     8.8011 C.3        1          -0.0106
      6 C2         16.8897   -14.6585    10.0420 C.3        1          -0.1512
      7 C3         16.1833   -15.3553    11.2066 C.3        1          -0.1209
      8 C4         16.8779   -16.6862    11.5017 C.3        1          -0.1010
      9 C5         16.1715   -17.3830    12.6664 C.3        1          -0.1464
     10 C6         16.8557   -18.6939    12.9569 C.2        1           0.5159
     11 O1         18.0424   -18.8197    12.7405 O.2        1          -0.5487
     12 N2         16.1488   -19.7265    13.4575 N.am       1          -0.7097
     13 C7         16.8140   -21.0009    13.7401 C.3        1           0.1865
     14 C8         16.6182   -21.4033    15.2091 C.3        1          -0.0834
     15 C9         15.4236   -22.3254    15.2114 C.ar       1          -0.0982
     16 C10        14.6518   -22.8073    16.2509 C.ar       1          -0.1095
     17 C11        13.5699   -23.6293    15.9926 C.ar       1          -0.1241
     18 C12        13.2506   -23.9763    14.6913 C.ar       1          -0.1187
     19 C13        14.0196   -23.5154    13.6443 C.ar       1          -0.0984
     20 C14        15.1246   -22.6955    13.8993 C.ar       1          -0.0371
     21 C15        16.1445   -22.1331    12.9925 C.2        1          -0.1547
     22 C16        16.4240   -22.5463    11.7433 C.2        1           0.0091
     23 C17        17.5483   -21.9517    11.0068 C.ar       1          -0.0276
     24 C18        18.8210   -22.5152    11.0951 C.ar       1          -0.1137
     25 C19        19.8778   -21.9579    10.4035 C.ar       1          -0.1014
     26 C20        19.6899   -20.8336     9.6143 C.ar       1           0.0074
     27 O2         20.5473   -20.1032     8.8461 O.3        1          -0.3189
     28 C21        19.9212   -18.8287     8.6366 C.3        1           0.2038
     29 O3         18.5297   -19.1781     8.6825 O.3        1          -0.2760
     30 C22        18.4276   -20.2520     9.5098 C.ar       1           0.0726
     31 C23        17.3447   -20.8081    10.1999 C.ar       1          -0.1049
     32 C24        16.0103   -20.2062    10.0920 C.2        1           0.5194
     33 O4         15.8401   -19.2165     9.3921 O.co2      1          -0.6732
     34 O5         15.0677   -20.6939    10.7017 O.co2      1          -0.6662
     35 H4         17.3240   -16.4997     9.0113 H          1           0.1334
     36 H5         17.3324   -15.0552     7.9714 H          1           0.1343
     37 H6         17.9310   -14.4742    10.3066 H          1           0.0888
     38 H7         16.3948   -13.7103     9.8318 H          1           0.0877
     39 H8         16.2263   -14.7192    12.0907 H          1           0.0746
     40 H9         15.1421   -15.5397    10.9421 H          1           0.0765
     41 H10        16.8347   -17.3224    10.6177 H          1           0.0744
     42 H11        17.9191   -16.5019    11.7661 H          1           0.0724
     43 H12        16.2147   -16.7468    13.5504 H          1           0.0928
     44 H13        15.1304   -17.5674    12.4018 H          1           0.0960
     45 H14        15.1997   -19.6261    13.6305 H          1           0.4053
     46 H15        17.8736   -20.9461    13.4908 H          1           0.1035
     47 H16        17.5003   -21.9263    15.5788 H          1           0.0828
     48 H17        16.4174   -20.5225    15.8191 H          1           0.0790
     49 H18        14.8943   -22.5415    17.2692 H          1           0.1161
     50 H19        12.9715   -24.0026    16.8105 H          1           0.1205
     51 H20        12.3976   -24.6094    14.4959 H          1           0.1230
     52 H21        13.7703   -23.7871    12.6293 H          1           0.1266
     53 H22        15.8223   -23.3153    11.2817 H          1           0.1614
     54 H23        18.9804   -23.3906    11.7072 H          1           0.1335
     55 H24        20.8597   -22.4013    10.4781 H          1           0.1266
     56 H25        20.1754   -18.1329     9.4362 H          1           0.1245
     57 H26        20.1885   -18.4178     7.6630 H          1           0.0780
@<TRIPOS>BOND
     1    1    2 1
     2    1    3 1
     3    1    4 1
     4    1    5 1
     5    5    6 1
     6    5   35 1
     7    5   36 1
     8    6    7 1
     9    6   37 1
    10    6   38 1
    11    7    8 1
    12    7   39 1
    13    7   40 1
    14    8    9 1
    15    8   41 1
    16    8   42 1
    17    9   10 1
    18    9   43 1
    19    9   44 1
    20   10   11 2
    21   10   12 am
    22   12   13 1
    23   12   45 1
    24   13   21 1
    25   13   14 1
    26   13   46 1
    27   14   15 1
    28   14   47 1
    29   14   48 1
    30   15   20 ar
    31   15   16 ar
    32   16   17 ar
    33   16   49 1
    34   17   18 ar
    35   17   50 1
    36   18   19 ar
    37   18   51 1
    38   19   20 ar
    39   19   52 1
    40   20   21 1
    41   21   22 2
    42   22   23 1
    43   22   53 1
    44   23   31 ar
    45   23   24 ar
    46   24   25 ar
    47   24   54 1
    48   25   26 ar
    49   25   55 1
    50   26   30 ar
    51   26   27 1
    52   27   28 1
    53   28   29 1
    54   28   56 1
    55   28   57 1
    56   29   30 1
    57   30   31 ar
    58   31   32 1
    59   32   33 1
    60   32   34 2
