AVX101119_0, 3
##########                 Name:          AVX101119_0
##########          Protonation:                   35
##########               SMILES:   CN(Cc1cccc(c1C(=O)[O-])OC)Cc2cc3c(cc2C(=O)NCc4ccc(cc4)OC)OCO3
##########            Long Name:   yl)methylcarbamoyl]-1,3-benzodioxol-5-yl]methyl-methyl-amino]methyl]benzoate
##########          FlexRecCode: 1
##########               Number:                   21
##########   Ligand Source File: /raid1/people/rgc/Examples/sampl4/screening/ligands/build_1//sampl4-hivint-00000
##########           GlobalRank: 31
##########                 Rank:                    1
##########               Setnum:                  128
##########             Matchnum:                15520
##########                Cloud:                    1
##########        Electrostatic:           -35.652912
##########        Van der Waals:           -22.749456
##########  Ligand Polar Desolv:            17.739990
########## Ligand Apolar Desolv:            -2.173400
##########      Internal Energy:             0.000000
##########      Receptor Energy: 0.0
########## Receptor Desolvation:             0.000000
########## Receptor Hydrophobic:             0.000000
##########         Total Energy: -42.84
##########        Ligand Charge:            -1.000000
##########            Arbitrary:    +999.9990
##########     heavy atom count:   36
##########           pose count:    1
##########        Ligand Energy:             0.000000
# num electro vdwattr vdwrepu polsolv apolsol rdesolv rhydroe totalscore fullpol fullapo
#   1    0.01   -0.79    0.20    0.00    0.01    0.00    0.00      -0.57   -0.01    0.03
#   2   -0.12   -0.45    0.02    0.49    0.19    0.00    0.00       0.12    2.43    0.93
#   3    0.07   -0.65    0.06   -0.17   -0.07    0.00    0.00      -0.76   -0.78   -0.31
#   4   -0.14   -0.74    0.15    0.19   -0.08    0.00    0.00      -0.62    1.04   -0.42
#   5   -0.04   -0.59    0.09    0.05   -0.07    0.00    0.00      -0.57    0.28   -0.45
#   6   -0.12   -0.54    0.12    0.15   -0.05    0.00    0.00      -0.44    1.04   -0.37
#   7    0.15   -0.18    0.02   -0.14   -0.04    0.00    0.00      -0.20   -1.48   -0.44
#   8   -0.64   -0.61    0.20    0.93    0.33    0.00    0.00       0.22    6.48    2.32
#   9    0.76   -0.25    0.02   -0.80   -0.06    0.00    0.00      -0.34   -8.33   -0.65
#  10   -1.04   -0.10    0.00    0.51    0.01    0.00    0.00      -0.61   10.94    0.32
#  11   -0.15   -0.29    0.02    0.24   -0.04    0.00    0.00      -0.22    2.20   -0.41
#  12   -0.05   -0.29    0.02    0.04   -0.05    0.00    0.00      -0.33    0.38   -0.45
#  13    0.00   -0.25    0.01   -0.03   -0.03    0.00    0.00      -0.29   -0.31   -0.33
#  14    0.06   -0.38    0.02   -0.09   -0.05    0.00    0.00      -0.44   -0.65   -0.33
#  15   -0.27   -0.54    0.11    1.00    0.08    0.00    0.00       0.38    5.93    0.50
#  16    0.17   -0.17    0.01   -0.17    0.00    0.00    0.00      -0.16   -1.81    0.02
#  17   -0.22   -0.19    0.00    0.28    0.04    0.00    0.00      -0.08    3.59    0.52
#  18   -0.18   -0.51    0.05    0.44   -0.06    0.00    0.00      -0.26    2.65   -0.38
#  19    0.06   -0.32    0.02    0.06   -0.05    0.00    0.00      -0.22    0.49   -0.39
#  20    0.88   -0.21    0.01   -0.39   -0.03    0.00    0.00       0.25   -3.20   -0.28
#  21   -5.86   -0.71    0.05    3.07    0.45    0.00    0.00      -3.00   13.21    1.95
#  22    0.12   -0.76    0.10   -0.17   -0.12    0.00    0.00      -0.83   -0.62   -0.44
#  23    2.46   -0.72    0.12   -0.81   -0.09    0.00    0.00       0.97   -2.91   -0.31
#  24   -0.33   -0.93    0.10    0.12   -0.09    0.00    0.00      -1.13    0.42   -0.32
#  25   -2.76   -1.23    0.20    0.91   -0.15    0.00    0.00      -3.02    2.54   -0.41
#  26   -1.14   -1.71    0.57    0.12   -0.20    0.00    0.00      -2.35    0.29   -0.47
#  27   -2.79   -2.36    0.99    1.52   -0.18    0.00    0.00      -2.82    3.49   -0.42
#  28    2.68   -1.40    0.23   -1.09   -0.12    0.00    0.00       0.31   -2.89   -0.31
#  29   -4.29   -1.74    0.51    3.88    0.14    0.00    0.00      -1.50   10.02    0.36
#  30    0.21   -1.86    0.82   -0.02    0.01    0.00    0.00      -0.84   -0.06    0.03
#  31   -3.62   -0.82    0.06    2.38   -0.12    0.00    0.00      -2.13    8.06   -0.41
#  32   17.29   -0.95    0.21   -4.70   -0.04    0.00    0.00      11.81  -19.00   -0.17
#  33  -18.33   -0.84    0.45    5.16   -0.06    0.00    0.00     -13.61   28.26   -0.31
#  34  -30.95   -2.11    1.89   11.30   -0.20    0.00    0.00     -20.05   33.63   -0.59
#  35   -0.08   -0.89    0.29    0.11   -0.09    0.00    0.00      -0.67    0.50   -0.45
#  36   -0.11   -1.06    0.21    0.34   -0.11    0.00    0.00      -0.73    1.39   -0.46
#  37    0.02   -0.13    0.01   -0.01   -0.03    0.00    0.00      -0.15   -0.10   -0.28
#  38    0.01   -0.24    0.14   -0.02   -0.04    0.00    0.00      -0.14   -0.11   -0.26
#  39    0.02   -0.79    0.74   -0.03   -0.08    0.00    0.00      -0.15   -0.11   -0.26
#  40    0.09   -0.24    0.11   -0.07   -0.03    0.00    0.00      -0.13   -0.44   -0.22
#  41    0.09   -0.12    0.02   -0.06   -0.03    0.00    0.00      -0.10   -0.53   -0.28
#  42    0.16   -0.03    0.00   -0.02   -0.01    0.00    0.00       0.09   -0.61   -0.28
#  43    0.07   -0.02    0.00   -0.01   -0.01    0.00    0.00       0.02   -0.70   -0.28
#  44    0.34   -0.03    0.00   -0.50    0.08    0.00    0.00      -0.11   -2.75    0.43
#  45    0.09   -0.06    0.00   -0.09   -0.01    0.00    0.00      -0.07   -1.56   -0.22
#  46    0.11   -0.05    0.00   -0.07   -0.02    0.00    0.00      -0.02   -1.17   -0.28
#  47    0.06   -0.03    0.00   -0.02   -0.01    0.00    0.00       0.00   -0.94   -0.28
#  48    0.31   -0.25    0.12   -0.39   -0.03    0.00    0.00      -0.26   -2.55   -0.22
#  49    1.05   -0.08    0.01   -0.06   -0.02    0.00    0.00       0.90   -0.82   -0.25
#  50    0.45   -0.04    0.00   -0.06   -0.01    0.00    0.00       0.35   -1.66   -0.22
#  51    0.58   -0.61    0.21   -0.45   -0.08    0.00    0.00      -0.35   -1.26   -0.22
#  52    0.47   -0.13    0.01   -0.14   -0.03    0.00    0.00       0.18   -0.97   -0.23
#  53    0.03   -0.17    0.02   -0.15   -0.05    0.00    0.00      -0.32   -0.95   -0.28
#  54    3.19   -0.15    0.02   -0.12   -0.03    0.00    0.00       2.91   -0.91   -0.20
#  55    0.46   -0.62    0.48   -0.42   -0.08    0.00    0.00      -0.17   -1.48   -0.27
#  56    1.37   -0.27    0.03   -0.68   -0.08    0.00    0.00       0.37   -2.29   -0.28
#  57    0.98   -0.34    0.08   -0.58   -0.09    0.00    0.00       0.05   -1.81   -0.28
#  58    0.76   -0.92    0.83   -1.10   -0.10    0.00    0.00      -0.53   -2.41   -0.22
#  59    0.33   -0.86    0.66   -0.49   -0.10    0.00    0.00      -0.46   -1.27   -0.26
#  60    0.09   -1.29    1.89   -0.58   -0.12    0.00    0.00      -0.01   -1.24   -0.26
#  61    1.05   -0.20    0.02   -0.39   -0.06    0.00    0.00       0.42   -1.72   -0.28
#  62    0.40   -0.16    0.02   -0.16   -0.05    0.00    0.00       0.06   -0.99   -0.28
#  63    0.06   -0.43    0.23   -0.26   -0.07    0.00    0.00      -0.47   -0.99   -0.28

@<TRIPOS>MOLECULE
      AVX101119_0        35
   63    66     0     0     0



@<TRIPOS>ATOM
      1 C1         21.9415   -20.7370    19.2640 C.3        1           0.0267
      2 O1         21.6889   -19.3343    19.3660 O.3        1          -0.3178
      3 C2         20.8051   -18.8006    18.4825 C.ar       1           0.1324
      4 C3         20.5172   -17.4439    18.5212 C.ar       1          -0.2113
      5 C4         19.6187   -16.9039    17.6216 C.ar       1          -0.0594
      6 C5         19.0062   -17.7140    16.6835 C.ar       1          -0.1447
      7 C6         18.0260   -17.1221    15.7037 C.3        1           0.1669
      8 N1         18.7405   -16.6860    14.5014 N.am       1          -0.7278
      9 C7         18.0626   -16.1220    13.4820 C.2        1           0.5687
     10 O2         16.8582   -15.9752    13.5605 O.2        1          -0.5238
     11 C8         18.7825   -15.6824    12.2707 C.ar       1          -0.1460
     12 C9         19.7923   -14.7210    12.3661 C.ar       1          -0.0700
     13 C10        20.4635   -14.3125    11.2306 C.ar       1           0.0067
     14 C11        20.1325   -14.8599     9.9899 C.ar       1           0.0623
     15 O3         20.9316   -14.2966     9.0393 O.3        1          -0.3018
     16 C12        21.4702   -13.1064     9.6443 C.3        1           0.2121
     17 O4         21.4697   -13.4070    11.0523 O.3        1          -0.3108
     18 C13        19.1291   -15.8145     9.8964 C.ar       1          -0.0790
     19 C14        18.4601   -16.2304    11.0272 C.ar       1           0.0189
     20 C15        17.3763   -17.2721    10.9211 C.3        1           0.1100
     21 N2         17.2299   -17.6853     9.5191 N.3        1          -0.5128
     22 C16        16.4340   -16.7093     8.7629 C.3        1           0.0172
     23 C17        16.6435   -19.0288     9.4247 C.3        1           0.1078
     24 C18        17.7127   -20.0621     9.6703 C.ar       1          -0.0148
     25 C19        18.9452   -19.9359     9.0683 C.ar       1          -0.1739
     26 C20        19.9326   -20.8823     9.2906 C.ar       1          -0.0927
     27 C21        19.6930   -21.9619    10.1174 C.ar       1          -0.2344
     28 C22        18.4583   -22.1066    10.7321 C.ar       1           0.1504
     29 O5         18.2215   -23.1665    11.5439 O.3        1          -0.2673
     30 C23        18.5322   -23.0048    12.9294 C.3        1           0.0229
     31 C24        17.4572   -21.1474    10.5144 C.ar       1          -0.1465
     32 C25        16.1449   -21.2857    11.1661 C.2        1           0.5249
     33 O6         15.9512   -20.7825    12.2642 O.co2      1          -0.6663
     34 O7         15.2477   -21.9039    10.6095 O.co2      1          -0.6792
     35 C26        19.2917   -19.0662    16.6425 C.ar       1          -0.0583
     36 C27        20.1934   -19.6103    17.5366 C.ar       1          -0.1531
     37 H1         22.6634   -21.0327    20.0254 H          1           0.1000
     38 H2         21.0114   -21.2855    19.4128 H          1           0.0562
     39 H3         22.3426   -20.9631    18.2759 H          1           0.0559
     40 H4         20.9949   -16.8108    19.2543 H          1           0.1288
     41 H5         19.3944   -15.8478    17.6514 H          1           0.1276
     42 H6         17.2842   -17.8735    15.4330 H          1           0.0789
     43 H7         17.5273   -16.2671    16.1602 H          1           0.0761
     44 H8         19.7013   -16.8033    14.4389 H          1           0.3995
     45 H9         20.0474   -14.2981    13.3266 H          1           0.1319
     46 H10        22.4855   -12.9238     9.2921 H          1           0.1295
     47 H11        20.8315   -12.2482     9.4358 H          1           0.0814
     48 H12        18.8749   -16.2359     8.9352 H          1           0.1621
     49 H13        17.6427   -18.1368    11.5289 H          1           0.1058
     50 H14        16.4345   -16.8541    11.2769 H          1           0.0644
     51 H15        16.3412   -17.0396     7.7283 H          1           0.0582
     52 H16        15.4425   -16.6260     9.2080 H          1           0.0668
     53 H17        16.9277   -15.7379     8.7912 H          1           0.0175
     54 H18        15.8569   -19.1354    10.1718 H          1           0.1230
     55 H19        16.2216   -19.1721     8.4300 H          1           0.0164
     56 H20        19.1429   -19.0955     8.4195 H          1           0.1096
     57 H21        20.8957   -20.7751     8.8138 H          1           0.1109
     58 H22        20.4681   -22.6950    10.2852 H          1           0.1159
     59 H23        18.2958   -23.9247    13.4644 H          1           0.0441
     60 H24        19.5934   -22.7825    13.0402 H          1           0.0441
     61 H25        17.9441   -22.1842    13.3403 H          1           0.0919
     62 H26        18.8122   -19.6969    15.9087 H          1           0.1344
     63 H27        20.4189   -20.6660    17.5018 H          1           0.1328
@<TRIPOS>BOND
     1    1    2 1
     2    1   37 1
     3    1   38 1
     4    1   39 1
     5    2    3 1
     6    3   36 ar
     7    3    4 ar
     8    4    5 ar
     9    4   40 1
    10    5    6 ar
    11    5   41 1
    12    6    7 1
    13    6   35 ar
    14    7    8 1
    15    7   42 1
    16    7   43 1
    17    8    9 am
    18    8   44 1
    19    9   10 2
    20    9   11 1
    21   11   19 ar
    22   11   12 ar
    23   12   13 ar
    24   12   45 1
    25   13   17 1
    26   13   14 ar
    27   14   15 1
    28   14   18 ar
    29   15   16 1
    30   16   17 1
    31   16   46 1
    32   16   47 1
    33   18   19 ar
    34   18   48 1
    35   19   20 1
    36   20   21 1
    37   20   49 1
    38   20   50 1
    39   21   22 1
    40   21   23 1
    41   22   51 1
    42   22   52 1
    43   22   53 1
    44   23   24 1
    45   23   54 1
    46   23   55 1
    47   24   31 ar
    48   24   25 ar
    49   25   26 ar
    50   25   56 1
    51   26   27 ar
    52   26   57 1
    53   27   28 ar
    54   27   58 1
    55   28   29 1
    56   28   31 ar
    57   29   30 1
    58   30   59 1
    59   30   60 1
    60   30   61 1
    61   31   32 1
    62   32   33 1
    63   32   34 2
    64   35   36 ar
    65   35   62 1
    66   36   63 1
