AVX17379_0, 3
##########                 Name:           AVX17379_0
##########          Protonation:                   99
##########               SMILES:   Cc1cc(nn1c2ccccc2C[NH3+])CO
##########            Long Name:   [2-[3-(hydroxymethyl)-5-methyl-pyrazol-1-yl]phenyl]methylammonium
##########          FlexRecCode: 1
##########               Number:                  421
##########   Ligand Source File: /raid1/people/rgc/Examples/sampl4/screening/ligands/build_1//sampl4-hivint-00000
##########           GlobalRank: 136
##########                 Rank:                    1
##########               Setnum:                   19
##########             Matchnum:                12306
##########                Cloud:                    1
##########        Electrostatic:            -3.886437
##########        Van der Waals:           -12.306140
##########  Ligand Polar Desolv:             0.913985
########## Ligand Apolar Desolv:            -0.515809
##########      Internal Energy:             0.000000
##########      Receptor Energy: 0.0
########## Receptor Desolvation:             0.000000
########## Receptor Hydrophobic:             0.000000
##########         Total Energy: -15.79
##########        Ligand Charge:             1.000000
##########            Arbitrary:    +999.9990
##########     heavy atom count:   16
##########           pose count:    1
##########        Ligand Energy:             0.000000
# num electro vdwattr vdwrepu polsolv apolsol rdesolv rhydroe totalscore fullpol fullapo
#   1   -1.75   -1.08    0.23   -0.65   -0.08    0.00    0.00      -3.33   -1.64   -0.20
#   2    1.81   -0.80    0.07    0.43   -0.21    0.00    0.00       1.31    1.55   -0.74
#   3   -5.64   -0.86    0.08   -0.88   -0.13    0.00    0.00      -7.42   -3.29   -0.47
#   4    2.30   -0.66    0.06    0.15   -0.17    0.00    0.00       1.68    0.71   -0.79
#   5    2.86   -0.50    0.04    0.46   -0.04    0.00    0.00       2.81    1.89   -0.16
#   6  -14.37   -2.31    0.88   -2.45    0.62    0.00    0.00     -17.63   -6.60    1.67
#   7   -6.54   -0.63    0.15   -0.72    0.17    0.00    0.00      -7.56   -4.15    0.99
#   8   -7.19   -0.58    0.04   -1.04    0.12    0.00    0.00      -8.66   -4.99    0.57
#   9    2.66   -0.63    0.04    0.51   -0.15    0.00    0.00       2.43    2.13   -0.64
#  10   -1.82   -0.81    0.05   -0.65   -0.11    0.00    0.00      -3.34   -2.27   -0.39
#  11   -0.54   -1.23    0.25   -0.50   -0.13    0.00    0.00      -2.15   -1.76   -0.47
#  12   -0.60   -1.52    1.26   -0.55   -0.11    0.00    0.00      -1.51   -2.36   -0.47
#  13   -0.39   -0.92    0.31   -0.28   -0.10    0.00    0.00      -1.38   -1.31   -0.46
#  14   -1.37   -0.66    0.06   -0.53   -0.08    0.00    0.00      -2.57   -2.39   -0.37
#  15    0.24   -0.47    0.10    0.30   -0.09    0.00    0.00       0.08    1.62   -0.48
#  16   -3.03   -0.20    0.01   -2.14    0.09    0.00    0.00      -5.27  -20.49    0.87
#  17    1.32    0.00    0.00    0.60    0.02    0.00    0.00       1.94   17.49    0.59
#  18    3.05    0.00    0.00    0.79    0.03    0.00    0.00       3.88   13.34    0.57
#  19    1.36    0.00    0.00    0.44    0.01    0.00    0.00       1.81   17.17    0.58
#  20    1.45   -0.34    0.07    0.86   -0.09    0.00    0.00       1.94    2.59   -0.28
#  21    0.89   -0.56    0.26    0.36   -0.10    0.00    0.00       0.85    1.02   -0.28
#  22    1.52   -0.36    0.09    0.32   -0.06    0.00    0.00       1.52    1.16   -0.20
#  23    4.26   -0.27    0.07    0.24   -0.06    0.00    0.00       4.24    1.12   -0.28
#  24    1.15   -0.11    0.01    0.18   -0.03    0.00    0.00       1.20    1.91   -0.28
#  25    0.86   -0.10    0.00    0.06   -0.02    0.00    0.00       0.80    0.69   -0.28
#  26    7.39   -0.05    0.00    2.19    0.44    0.00    0.00       9.98    6.13    1.24
#  27    3.06   -0.15    0.01    0.18   -0.04    0.00    0.00       3.06    1.19   -0.25
#  28    0.71   -0.31    0.06    0.45   -0.07    0.00    0.00       0.83    1.75   -0.28
#  29    0.34   -0.36    0.34    0.50   -0.05    0.00    0.00       0.76    2.68   -0.28
#  30    0.40   -0.14    0.03    0.73   -0.04    0.00    0.00       0.98    5.65   -0.28
#  31    0.55   -0.23    0.09    1.14   -0.05    0.00    0.00       1.50    6.71   -0.28
#  32    1.18   -0.23    0.11    0.41   -0.03    0.00    0.00       1.43    2.60   -0.21

@<TRIPOS>MOLECULE
       AVX17379_0        99
   32    33     0     0     0



@<TRIPOS>ATOM
      1 C1         18.6235   -22.2973    10.7309 C.3        1          -0.1045
      2 C2         17.6666   -21.1513    10.9351 C.2        1           0.0838
      3 C3         17.2812   -20.2563     9.9960 C.2        1          -0.2251
      4 C4         16.3880   -19.3611    10.5949 C.2        1           0.0977
      5 C5         15.7109   -18.2002     9.9131 C.3        1           0.1532
      6 O1         15.2100   -18.6202     8.6424 O.3        1          -0.5653
      7 N1         16.2417   -19.7056    11.8489 N.2        1          -0.2997
      8 N2         17.0343   -20.8357    12.0880 N.pl3      1          -0.3545
      9 C6         17.1526   -21.5176    13.3072 C.ar       1           0.1772
     10 C7         16.8062   -22.8598    13.3901 C.ar       1          -0.1171
     11 C8         16.9243   -23.5289    14.5924 C.ar       1          -0.0639
     12 C9         17.3872   -22.8636    15.7130 C.ar       1          -0.1088
     13 C10        17.7328   -21.5273    15.6335 C.ar       1          -0.0724
     14 C11        17.6218   -20.8540    14.4325 C.ar       1          -0.1579
     15 C12        18.0042   -19.3988    14.3454 C.3        1           0.0379
     16 N3         16.8319   -18.5658    14.6451 N.4        1          -0.6350
     17 H1         17.0879   -17.5915    14.5867 H          1           0.4394
     18 H2         16.1006   -18.7618    13.9782 H          1           0.4291
     19 H3         16.5021   -18.7717    15.5761 H          1           0.4342
     20 H4         18.9726   -22.2995     9.6982 H          1           0.0831
     21 H5         19.4749   -22.1838    11.4020 H          1           0.0985
     22 H6         18.1153   -23.2376    10.9446 H          1           0.0785
     23 H7         17.6060   -20.2364     8.9662 H          1           0.1649
     24 H8         14.8850   -17.8476    10.5308 H          1           0.0718
     25 H9         16.4293   -17.3927     9.7717 H          1           0.0762
     26 H10        14.7607   -17.9222     8.1466 H          1           0.3983
     27 H11        16.4445   -23.3797    12.5154 H          1           0.1429
     28 H12        16.6548   -24.5726    14.6575 H          1           0.1478
     29 H13        17.4784   -23.3889    16.6523 H          1           0.1458
     30 H14        18.0936   -21.0103    16.5105 H          1           0.1447
     31 H15        18.7942   -19.1871    15.0658 H          1           0.1456
     32 H16        18.3604   -19.1764    13.3395 H          1           0.1535
@<TRIPOS>BOND
     1    1    2 1
     2    1   20 1
     3    1   21 1
     4    1   22 1
     5    2    8 1
     6    2    3 2
     7    3    4 1
     8    3   23 1
     9    4    5 1
    10    4    7 2
    11    5    6 1
    12    5   24 1
    13    5   25 1
    14    6   26 1
    15    7    8 1
    16    8    9 1
    17    9   14 ar
    18    9   10 ar
    19   10   11 ar
    20   10   27 1
    21   11   12 ar
    22   11   28 1
    23   12   13 ar
    24   12   29 1
    25   13   14 ar
    26   13   30 1
    27   14   15 1
    28   15   16 1
    29   15   31 1
    30   15   32 1
    31   16   17 1
    32   16   18 1
    33   16   19 1
