AVX17286_0, 3
##########                 Name:           AVX17286_0
##########          Protonation:                  100
##########               SMILES:   c1ccc2c(c1)/C(=C/c3ccc4c(c3C(=O)[O-])OCO4)/C(=[NH+]2)[O-]
##########            Long Name:   5-[(Z)-(2-oxidoindol-1-ium-3-ylidene)methyl]-1,3-benzodioxole-4-carboxylate
##########          FlexRecCode: 1
##########               Number:                  673
##########   Ligand Source File: /raid1/people/rgc/Examples/sampl4/screening/ligands/build_1//sampl4-hivint-00000
##########           GlobalRank: 16
##########                 Rank:                    1
##########               Setnum:                    1
##########             Matchnum:                20942
##########                Cloud:                    1
##########        Electrostatic:           -50.464073
##########        Van der Waals:           -16.958530
##########  Ligand Polar Desolv:            25.695663
########## Ligand Apolar Desolv:            -2.785356
##########      Internal Energy:             0.000000
##########      Receptor Energy: 0.0
########## Receptor Desolvation:             0.000000
########## Receptor Hydrophobic:             0.000000
##########         Total Energy: -44.51
##########        Ligand Charge:            -1.000000
##########            Arbitrary:    +999.9990
##########     heavy atom count:   23
##########           pose count:    1
##########        Ligand Energy:             0.000000
# num electro vdwattr vdwrepu polsolv apolsol rdesolv rhydroe totalscore fullpol fullapo
#   1  -33.76   -3.60    3.63   12.18   -0.15    0.00    0.00     -21.71   27.08   -0.33
#   2   20.27   -2.30    1.79   -7.58   -0.07    0.00    0.00      12.11  -18.57   -0.17
#   3  -23.43   -3.07    2.75   15.79   -0.28    0.00    0.00      -8.24   30.91   -0.55
#   4   -2.51   -0.93    0.07    1.90   -0.13    0.00    0.00      -1.60    5.99   -0.41
#   5    1.77   -1.01    0.24   -0.14   -0.09    0.00    0.00       0.76   -0.51   -0.32
#   6  -10.59   -1.30    0.38    3.33    0.12    0.00    0.00      -8.07    9.32    0.33
#   7    5.57   -0.91    0.29   -1.06    0.01    0.00    0.00       3.90   -3.18    0.02
#   8   -6.39   -1.01    0.58    1.14    0.11    0.00    0.00      -5.57    5.26    0.50
#   9    0.70   -0.85    0.36   -0.15   -0.07    0.00    0.00      -0.01   -0.73   -0.33
#  10   -1.54   -0.53    0.04    0.24   -0.09    0.00    0.00      -1.88    1.24   -0.47
#  11   -0.47   -0.86    0.08    0.14   -0.09    0.00    0.00      -1.20    0.52   -0.32
#  12   -1.43   -0.99    0.08    0.52   -0.12    0.00    0.00      -1.93    1.65   -0.37
#  13    2.01   -1.96    0.59   -0.47   -0.14    0.00    0.00       0.03   -1.27   -0.37
#  14   -3.24   -1.59    0.84    1.21   -0.15    0.00    0.00      -2.93    3.51   -0.42
#  15    8.59   -0.91    0.27   -2.23   -0.17    0.00    0.00       5.55   -9.09   -0.69
#  16  -11.04   -0.44    0.03    2.71    0.25    0.00    0.00      -8.50   14.25    1.29
#  17   -8.01   -0.93    0.15    1.94    0.49    0.00    0.00      -6.36    6.59    1.67
#  18    4.63   -0.01    0.00   -0.58    0.09    0.00    0.00       4.14   -3.68    0.60
#  19    1.30   -1.39    0.39   -0.34   -0.29    0.00    0.00      -0.32   -0.92   -0.77
#  20   -1.22   -1.92    0.60    0.19   -0.21    0.00    0.00      -2.57    0.43   -0.48
#  21   -0.78   -2.74    2.36    0.07   -0.25    0.00    0.00      -1.32    0.14   -0.47
#  22   -0.66   -3.17    2.56    0.45   -0.27    0.00    0.00      -1.09    0.78   -0.47
#  23   -0.47   -2.94    1.49    0.65   -0.25    0.00    0.00      -1.51    1.25   -0.48
#  24   -0.82   -1.94    0.98    1.04   -0.18    0.00    0.00      -0.92    2.49   -0.44
#  25    3.71   -0.49    0.34   -0.78   -0.09    0.00    0.00       2.68   -2.53   -0.28
#  26    1.35   -0.24    0.04   -0.42   -0.07    0.00    0.00       0.66   -1.72   -0.28
#  27    1.06   -0.07    0.00   -0.18   -0.02    0.00    0.00       0.80   -2.87   -0.28
#  28    1.14   -0.26    0.04   -0.79   -0.06    0.00    0.00       0.08   -3.11   -0.23
#  29    1.55   -1.06    1.58   -1.55   -0.09    0.00    0.00       0.43   -3.66   -0.22
#  30    0.87   -0.60    0.33   -0.16   -0.11    0.00    0.00       0.33   -0.42   -0.28
#  31    0.95   -0.58    0.20   -0.04   -0.13    0.00    0.00       0.40   -0.09   -0.28
#  32   -0.13   -0.70    0.40   -0.46   -0.16    0.00    0.00      -1.04   -0.80   -0.28
#  33    0.54   -1.19    2.09   -0.89   -0.15    0.00    0.00       0.41   -1.67   -0.28

@<TRIPOS>MOLECULE
       AVX17286_0       100
   33    36     0     0     0



@<TRIPOS>ATOM
      1 O1         16.0195   -22.8253     9.3259 O.co2      1          -0.6792
      2 C1         16.3288   -23.5627    10.2521 C.2        1           0.5223
      3 O2         16.6280   -24.7285    10.0322 O.co2      1          -0.6603
      4 C2         16.3467   -23.0457    11.6292 C.ar       1          -0.0877
      5 C3         15.2027   -23.1258    12.4250 C.ar       1           0.0561
      6 O3         13.9619   -23.6261    12.1735 O.3        1          -0.2761
      7 C4         13.3517   -23.8086    13.4647 C.3        1           0.2048
      8 O4         14.0010   -22.8268    14.2937 O.3        1          -0.3156
      9 C5         15.2289   -22.6318    13.7334 C.ar       1           0.0316
     10 C6         16.3878   -22.0631    14.2416 C.ar       1          -0.1143
     11 C7         17.5267   -21.9764    13.4668 C.ar       1          -0.0366
     12 C8         17.5263   -22.4686    12.1594 C.ar       1          -0.0790
     13 C9         18.7365   -22.3824    11.3398 C.2        1           0.1453
     14 C10        18.9603   -21.2718    10.5575 C.2        1          -0.2175
     15 C11        18.1915   -20.0147    10.5291 C.2        1           0.5071
     16 O5         17.1052   -19.7319    11.2879 O.3        1          -0.5732
     17 N1         18.7373   -19.2185     9.6462 N.pl3      1          -0.5927
     18 H1         18.4063   -18.3286     9.4478 H          1           0.4149
     19 C12        19.8180   -19.7723     9.0372 C.ar       1           0.1111
     20 C13        20.6869   -19.2913     8.0521 C.ar       1          -0.1329
     21 C14        21.7245   -20.0795     7.6038 C.ar       1          -0.1000
     22 C15        21.9229   -21.3517     8.1174 C.ar       1          -0.1356
     23 C16        21.0782   -21.8480     9.0910 C.ar       1          -0.0684
     24 C17        20.0314   -21.0653     9.5578 C.ar       1          -0.0716
     25 H2         12.2799   -23.6167    13.4121 H          1           0.1255
     26 H3         13.5436   -24.8137    13.8402 H          1           0.0765
     27 H4         16.3988   -21.6843    15.2530 H          1           0.1293
     28 H5         18.4222   -21.5307    13.8740 H          1           0.1325
     29 H6         19.4536   -23.1899    11.3490 H          1           0.1729
     30 H7         20.5444   -18.3022     7.6425 H          1           0.1236
     31 H8         22.3912   -19.7015     6.8428 H          1           0.1264
     32 H9         22.7405   -21.9570     7.7547 H          1           0.1272
     33 H10        21.2337   -22.8395     9.4899 H          1           0.1334
@<TRIPOS>BOND
     1    1    2 1
     2    2    3 2
     3    2    4 1
     4    4   12 ar
     5    4    5 ar
     6    5    9 ar
     7    5    6 1
     8    6    7 1
     9    7    8 1
    10    7   25 1
    11    7   26 1
    12    8    9 1
    13    9   10 ar
    14   10   11 ar
    15   10   27 1
    16   11   12 ar
    17   11   28 1
    18   12   13 1
    19   13   14 2
    20   13   29 1
    21   14   24 1
    22   14   15 1
    23   15   16 1
    24   15   17 2
    25   17   18 1
    26   17   19 1
    27   19   24 ar
    28   19   20 ar
    29   20   21 ar
    30   20   30 1
    31   21   22 ar
    32   21   31 1
    33   22   23 ar
    34   22   32 1
    35   23   24 ar
    36   23   33 1
