AVX17260_0, 3
##########                 Name:           AVX17260_0
##########          Protonation:                  100
##########               SMILES:   c1ccc2c(c1)[C@H](C(=O)N2)Cc3ccc4c(c3C(=O)[O-])OCO4
##########            Long Name:   5-[[(3R)-2-oxoindolin-3-yl]methyl]-1,3-benzodioxole-4-carboxylate
##########          FlexRecCode: 1
##########               Number:                   58
##########   Ligand Source File: /raid1/people/rgc/Examples/sampl4/screening/ligands/build_1//sampl4-hivint-00000
##########           GlobalRank: 50
##########                 Rank:                    1
##########               Setnum:                    3
##########             Matchnum:                11524
##########                Cloud:                    1
##########        Electrostatic:           -57.151054
##########        Van der Waals:            -4.482018
##########  Ligand Polar Desolv:            22.518959
########## Ligand Apolar Desolv:            -1.573594
##########      Internal Energy:             0.000000
##########      Receptor Energy: 0.0
########## Receptor Desolvation:             0.000000
########## Receptor Hydrophobic:             0.000000
##########         Total Energy: -40.69
##########        Ligand Charge:            -1.000000
##########            Arbitrary:    +999.9990
##########     heavy atom count:   23
##########           pose count:    1
##########        Ligand Energy:             0.000000
# num electro vdwattr vdwrepu polsolv apolsol rdesolv rhydroe totalscore fullpol fullapo
#   1  -33.13   -4.54   12.20   12.89   -0.17    0.00    0.00     -12.75   30.95   -0.42
#   2   22.96   -1.89    0.91   -6.90   -0.04    0.00    0.00      15.05  -20.31   -0.11
#   3  -34.15   -3.35    5.36   10.44   -0.13    0.00    0.00     -21.83   31.41   -0.39
#   4   -2.58   -1.05    0.12    1.87   -0.13    0.00    0.00      -1.77    5.72   -0.40
#   5    1.33   -1.21    0.15    0.20   -0.12    0.00    0.00       0.34    0.53   -0.33
#   6  -12.41   -2.03    0.80    4.38    0.21    0.00    0.00      -9.06   10.07    0.48
#   7    6.19   -1.37    0.63   -1.39    0.01    0.00    0.00       4.07   -3.23    0.02
#   8   -5.92   -1.24    0.16    2.38    0.23    0.00    0.00      -4.39    5.36    0.52
#   9    0.40   -1.45    0.25   -0.21   -0.13    0.00    0.00      -1.15   -0.53   -0.33
#  10   -1.24   -2.77    1.32    0.45   -0.18    0.00    0.00      -2.42    1.15   -0.47
#  11   -0.98   -2.32    0.89    0.42   -0.15    0.00    0.00      -2.13    1.13   -0.39
#  12   -1.24   -1.04    0.09    0.61   -0.11    0.00    0.00      -1.69    1.86   -0.32
#  13   -0.57   -0.69    0.08    0.24   -0.05    0.00    0.00      -0.98    0.83   -0.18
#  14   -0.78   -0.38    0.02    0.46   -0.04    0.00    0.00      -0.72    2.14   -0.20
#  15    7.24   -0.61    0.22   -1.48   -0.10    0.00    0.00       5.28   -9.92   -0.66
#  16   -8.96   -0.70    0.34    1.72    0.06    0.00    0.00      -7.54   11.01    0.38
#  17   -4.16   -0.63    0.27    0.97    0.24    0.00    0.00      -3.31    7.37    1.81
#  18    0.55   -0.29    0.02   -0.16   -0.08    0.00    0.00       0.04   -1.51   -0.76
#  19   -0.28   -0.18    0.00    0.04   -0.03    0.00    0.00      -0.45    0.56   -0.48
#  20   -0.13   -0.18    0.00    0.02   -0.03    0.00    0.00      -0.33    0.27   -0.47
#  21   -0.14   -0.42    0.04    0.16   -0.06    0.00    0.00      -0.41    1.27   -0.47
#  22    0.01   -0.69    0.08    0.37   -0.09    0.00    0.00      -0.31    1.96   -0.47
#  23   -0.51   -0.43    0.02    0.57   -0.07    0.00    0.00      -0.42    3.35   -0.39
#  24    3.79   -1.05    2.13   -1.15   -0.13    0.00    0.00       3.60   -2.48   -0.28
#  25    2.07   -0.28    0.07   -0.37   -0.06    0.00    0.00       1.44   -1.81   -0.28
#  26    0.28   -1.33    2.52   -1.19   -0.13    0.00    0.00       0.15   -2.62   -0.28
#  27    0.90   -0.86    0.67   -1.07   -0.11    0.00    0.00      -0.48   -2.80   -0.28
#  28    1.35   -0.18    0.02   -0.42   -0.05    0.00    0.00       0.72   -2.53   -0.27
#  29    0.51   -0.46    0.22   -0.26   -0.07    0.00    0.00      -0.06   -0.89   -0.25
#  30    0.95   -0.17    0.03   -0.16   -0.03    0.00    0.00       0.62   -1.05   -0.23
#  31    1.45   -0.01    0.00   -0.43    0.07    0.00    0.00       1.08   -3.42    0.59
#  32    0.24   -0.02    0.00   -0.01   -0.01    0.00    0.00       0.19   -0.57   -0.28
#  33    0.18   -0.02    0.00   -0.01   -0.01    0.00    0.00       0.14   -0.40   -0.28
#  34    0.11   -0.09    0.01   -0.11   -0.02    0.00    0.00      -0.11   -1.36   -0.28
#  35   -0.48   -0.25    0.04   -0.34   -0.06    0.00    0.00      -1.09   -1.63   -0.28

@<TRIPOS>MOLECULE
       AVX17260_0       100
   35    38     0     0     0



@<TRIPOS>ATOM
      1 O1         14.3792   -24.5383    10.7815 O.co2      1          -0.6800
      2 C1         14.7400   -23.4581    11.2285 C.2        1           0.5351
      3 O2         13.9111   -22.5978    11.4926 O.co2      1          -0.6766
      4 C2         16.1704   -23.1958    11.4543 C.ar       1          -0.0833
      5 C3         16.9509   -22.6262    10.4393 C.ar       1           0.0424
      6 O3         16.6394   -22.2284     9.1750 O.3        1          -0.2993
      7 C4         17.7157   -21.3634     8.7670 C.3        1           0.2107
      8 O4         18.8396   -21.8299     9.5369 O.3        1          -0.3171
      9 C5         18.3034   -22.3825    10.6645 C.ar       1           0.0206
     10 C6         18.8688   -22.7028    11.8871 C.ar       1          -0.1153
     11 C7         18.0971   -23.2659    12.8906 C.ar       1          -0.0884
     12 C8         16.7571   -23.5087    12.6856 C.ar       1          -0.0678
     13 C9         15.9241   -24.1154    13.7852 C.3        1          -0.0439
     14 C10        15.9461   -23.1961    15.0080 C.3        1          -0.0857
     15 C11        15.3213   -21.8575    14.6766 C.2        1           0.5320
     16 O5         15.7105   -21.0674    13.8427 O.2        1          -0.4862
     17 N1         14.2540   -21.7096    15.4795 N.am       1          -0.6648
     18 C12        14.0762   -22.8026    16.3285 C.ar       1           0.1403
     19 C13        13.1103   -23.0528    17.3016 C.ar       1          -0.1460
     20 C14        13.1445   -24.2265    18.0253 C.ar       1          -0.0919
     21 C15        14.1349   -25.1634    17.7922 C.ar       1          -0.1418
     22 C16        15.0971   -24.9222    16.8273 C.ar       1          -0.0572
     23 C17        15.0657   -23.7513    16.1038 C.ar       1          -0.1210
     24 H1         17.9110   -21.4718     7.7001 H          1           0.1238
     25 H2         17.4875   -20.3262     9.0123 H          1           0.0765
     26 H3         19.9179   -22.5128    12.0595 H          1           0.1252
     27 H4         18.5483   -23.5123    13.8404 H          1           0.1252
     28 H5         14.8975   -24.2353    13.4391 H          1           0.0714
     29 H6         16.3324   -25.0892    14.0552 H          1           0.0994
     30 H7         16.9666   -23.0650    15.3677 H          1           0.1450
     31 H8         13.6738   -20.9325    15.4700 H          1           0.4075
     32 H9         12.3339   -22.3260    17.4895 H          1           0.1215
     33 H10        12.3938   -24.4148    18.7786 H          1           0.1262
     34 H11        14.1574   -26.0806    18.3619 H          1           0.1277
     35 H12        15.8722   -25.6511    16.6426 H          1           0.1356
@<TRIPOS>BOND
     1    1    2 1
     2    2    3 2
     3    2    4 1
     4    4   12 ar
     5    4    5 ar
     6    5    9 ar
     7    5    6 1
     8    6    7 1
     9    7    8 1
    10    7   24 1
    11    7   25 1
    12    8    9 1
    13    9   10 ar
    14   10   11 ar
    15   10   26 1
    16   11   12 ar
    17   11   27 1
    18   12   13 1
    19   13   14 1
    20   13   28 1
    21   13   29 1
    22   14   23 1
    23   14   15 1
    24   14   30 1
    25   15   16 2
    26   15   17 am
    27   17   18 1
    28   17   31 1
    29   18   23 ar
    30   18   19 ar
    31   19   20 ar
    32   19   32 1
    33   20   21 ar
    34   20   33 1
    35   21   22 ar
    36   21   34 1
    37   22   23 ar
    38   22   35 1
