AVX17558_3, 3
##########                 Name:           AVX17558_0
##########          Protonation:                  100
##########               SMILES:   c1ccc2c(c1)C[C@H]([C@@H]2Cc3ccc4c(c3C(=O)[O-])OCO4)NC(=O)CCC[NH3+]
##########            Long Name:   -(4-azaniumylbutanoylamino)indan-1-yl]methyl]-1,3-benzodioxole-4-carboxylate
##########          FlexRecCode: 1
##########               Number:                   65
##########   Ligand Source File: /raid1/people/rgc/Examples/sampl4/screening/ligands/build_1//sampl4-hivint-00000
##########           GlobalRank: 89
##########                 Rank:                    1
##########               Setnum:                    2
##########             Matchnum:                 5522
##########                Cloud:                    1
##########        Electrostatic:           -28.725733
##########        Van der Waals:           -17.215239
##########  Ligand Polar Desolv:            14.218590
########## Ligand Apolar Desolv:            -3.778012
##########      Internal Energy:             0.000000
##########      Receptor Energy: 0.0
########## Receptor Desolvation:             0.000000
########## Receptor Hydrophobic:             0.000000
##########         Total Energy: -35.5
##########        Ligand Charge:             0.000000
##########            Arbitrary:    +999.9990
##########     heavy atom count:   29
##########           pose count:    1
##########        Ligand Energy:             0.000000
# num electro vdwattr vdwrepu polsolv apolsol rdesolv rhydroe totalscore fullpol fullapo
#   1   -2.80   -0.24    0.02   -2.19    0.10    0.00    0.00      -5.12  -19.39    0.86
#   2    2.44   -0.01    0.00    1.25    0.05    0.00    0.00       3.74   14.97    0.58
#   3    0.83    0.00    0.00    0.94    0.04    0.00    0.00       1.80   14.73    0.58
#   4    1.75    0.00    0.00    0.42    0.02    0.00    0.00       2.18   16.16    0.60
#   5   -0.07   -0.24    0.02    0.11   -0.07    0.00    0.00      -0.25    0.78   -0.49
#   6   -0.81   -1.00    0.60   -0.56   -0.05    0.00    0.00      -1.82   -2.39   -0.20
#   7   -0.92   -0.85    0.21   -0.42   -0.07    0.00    0.00      -2.04   -1.53   -0.24
#   8    5.71   -0.86    0.09    0.40   -0.18    0.00    0.00       5.17    1.49   -0.66
#   9   -6.90   -0.49    0.02   -0.10    0.08    0.00    0.00      -7.39   -0.47    0.37
#  10   -9.65   -1.12    0.13    0.40    0.60    0.00    0.00      -9.64    1.32    1.96
#  11    3.27   -0.63    0.04   -0.30   -0.08    0.00    0.00       2.31   -0.90   -0.23
#  12   -1.52   -1.17    0.25    0.09   -0.11    0.00    0.00      -2.45    0.24   -0.27
#  13   -2.59   -2.72    1.04    0.38   -0.21    0.00    0.00      -4.11    0.76   -0.43
#  14   -2.38   -3.60    1.44    0.30   -0.29    0.00    0.00      -4.53    0.49   -0.47
#  15   -3.16   -4.81    3.15    0.45   -0.33    0.00    0.00      -4.71    0.64   -0.47
#  16   -3.40   -6.12    5.64    0.89   -0.33    0.00    0.00      -3.31    1.27   -0.47
#  17   -2.58   -5.37    5.97    1.21   -0.28    0.00    0.00      -1.05    1.97   -0.45
#  18   -1.88   -3.27    2.44    0.74   -0.20    0.00    0.00      -2.17    1.43   -0.39
#  19   -0.81   -1.07    0.22    0.11   -0.06    0.00    0.00      -1.61    0.25   -0.13
#  20   -2.17   -1.02    0.17    0.36   -0.07    0.00    0.00      -2.73    0.86   -0.17
#  21   -0.65   -1.04    0.12    0.08   -0.10    0.00    0.00      -1.59    0.25   -0.31
#  22   -1.82   -1.43    0.47    0.17   -0.17    0.00    0.00      -2.78    0.44   -0.45
#  23   -0.98   -1.93    2.68   -0.02   -0.15    0.00    0.00      -0.42   -0.07   -0.47
#  24   -0.07   -1.08    0.54   -0.05   -0.09    0.00    0.00      -0.75   -0.18   -0.33
#  25   -1.26   -0.59    0.09    0.20    0.11    0.00    0.00      -1.46    0.94    0.52
#  26    0.64   -0.28    0.02   -0.11    0.00    0.00    0.00       0.28   -0.71    0.02
#  27   -1.92   -0.29    0.01    0.79    0.05    0.00    0.00      -1.36    5.48    0.34
#  28    0.86   -0.60    0.05   -0.10   -0.07    0.00    0.00       0.14   -0.45   -0.32
#  29   -2.47   -0.75    0.06    0.87   -0.10    0.00    0.00      -2.39    3.51   -0.41
#  30   15.23   -1.11    0.30   -3.50   -0.04    0.00    0.00      10.89  -13.36   -0.16
#  31  -22.34   -2.44    1.95    7.41   -0.10    0.00    0.00     -15.53   20.69   -0.29
#  32  -21.38   -1.17    0.70    5.47   -0.12    0.00    0.00     -16.49   25.03   -0.56
#  33    0.58   -0.04    0.00    0.11   -0.01    0.00    0.00       0.65    3.53   -0.28
#  34    1.56   -0.07    0.01    0.30   -0.02    0.00    0.00       1.78    4.06   -0.28
#  35    0.72   -0.88    2.89    0.41   -0.07    0.00    0.00       3.06    1.59   -0.28
#  36    0.33   -0.43    0.45    0.30   -0.06    0.00    0.00       0.58    1.33   -0.28
#  37    0.55   -0.65    0.44    0.38   -0.10    0.00    0.00       0.62    1.03   -0.28
#  38    0.46   -0.13    0.02    0.23   -0.04    0.00    0.00       0.54    1.72   -0.28
#  39    4.26   -0.03    0.00   -0.40    0.16    0.00    0.00       3.99   -1.42    0.57
#  40    3.22   -0.14    0.01   -0.06   -0.03    0.00    0.00       2.99   -0.47   -0.25
#  41    0.74   -0.85    0.75   -0.09   -0.11    0.00    0.00       0.44   -0.25   -0.28
#  42    1.33   -0.22    0.02   -0.03   -0.06    0.00    0.00       1.03   -0.14   -0.28
#  43    1.37   -1.33    3.00   -0.07   -0.17    0.00    0.00       2.79   -0.12   -0.28
#  44    2.62   -1.12    0.98   -0.23   -0.22    0.00    0.00       2.03   -0.29   -0.28
#  45    3.13   -1.58    1.93   -0.81   -0.22    0.00    0.00       2.46   -1.05   -0.28
#  46    3.41   -1.04    0.80   -0.89   -0.17    0.00    0.00       2.11   -1.38   -0.27
#  47    1.71   -0.48    0.20   -0.19   -0.08    0.00    0.00       1.16   -0.57   -0.22
#  48    4.06   -0.55    0.20   -0.32   -0.09    0.00    0.00       3.29   -0.69   -0.20
#  49    2.33   -0.44    0.33   -0.21   -0.06    0.00    0.00       1.95   -0.91   -0.27
#  50    1.55   -0.34    0.07   -0.10   -0.09    0.00    0.00       1.09   -0.29   -0.28
#  51    0.83   -0.43    0.50    0.16   -0.06    0.00    0.00       1.01    0.73   -0.28
#  52    0.20   -0.04    0.00    0.00   -0.01    0.00    0.00       0.14   -0.15   -0.28
#  53    0.12   -0.15    0.03    0.01   -0.03    0.00    0.00      -0.03    0.06   -0.28

@<TRIPOS>MOLECULE
       AVX17558_0       100
   53    56     0     0     0



@<TRIPOS>ATOM
      1 N1         17.3986   -17.5709    13.6265 N.4        1          -0.6365
      2 H1         17.8429   -17.6105    12.7214 H          1           0.4351
      3 H2         17.9700   -17.0299    14.2582 H          1           0.4363
      4 H3         16.4921   -17.1366    13.5374 H          1           0.4368
      5 C1         17.2397   -18.9326    14.1541 C.3        1          -0.0108
      6 C2         18.6142   -19.5908    14.2892 C.3        1          -0.1345
      7 C3         18.4485   -21.0091    14.8387 C.3        1          -0.1442
      8 C4         17.5953   -21.8170    13.8952 C.2        1           0.5178
      9 O1         16.5511   -22.2973    14.2821 O.2        1          -0.5471
     10 N2         17.9926   -22.0057    12.6211 N.am       1          -0.7039
     11 C5         17.1630   -22.7910    11.7039 C.3        1           0.1454
     12 C6         17.0499   -24.2540    12.1824 C.3        1          -0.0861
     13 C7         17.0213   -25.0837    10.9166 C.ar       1          -0.1082
     14 C8         16.6221   -26.3939    10.7112 C.ar       1          -0.1114
     15 C9         16.6847   -26.9497     9.4485 C.ar       1          -0.1255
     16 C10        17.1472   -26.1965     8.3854 C.ar       1          -0.1206
     17 C11        17.5457   -24.8899     8.5883 C.ar       1          -0.0879
     18 C12        17.4836   -24.3307     9.8539 C.ar       1          -0.0663
     19 C13        17.8548   -22.9435    10.3326 C.3        1          -0.0339
     20 C14        17.3345   -21.8877     9.3551 C.3        1          -0.0677
     21 C15        18.0610   -20.5878     9.5863 C.ar       1          -0.0295
     22 C16        19.4287   -20.5271     9.4371 C.ar       1          -0.1289
     23 C17        20.1044   -19.3359     9.6473 C.ar       1          -0.1047
     24 C18        19.4129   -18.1924    10.0099 C.ar       1          -0.0083
     25 O2         19.8392   -16.9216    10.2695 O.3        1          -0.3207
     26 C19        18.6612   -16.0976    10.1855 C.3        1           0.2058
     27 O3         17.5893   -16.9986    10.5206 O.3        1          -0.2748
     28 C20        18.0296   -18.2369    10.1649 C.ar       1           0.0752
     29 C21        17.3455   -19.4405     9.9471 C.ar       1          -0.1199
     30 C22        15.8832   -19.4988    10.1021 C.2        1           0.5175
     31 O4         15.1570   -19.2752     9.1432 O.co2      1          -0.6672
     32 O5         15.3938   -19.7709    11.1898 O.co2      1          -0.6698
     33 H4         16.7596   -18.8897    15.1317 H          1           0.1353
     34 H5         16.6223   -19.5168    13.4717 H          1           0.1345
     35 H6         19.0942   -19.6337    13.3115 H          1           0.0949
     36 H7         19.2314   -19.0066    14.9717 H          1           0.0967
     37 H8         19.4278   -21.4782    14.9350 H          1           0.1039
     38 H9         17.9685   -20.9662    15.8163 H          1           0.1025
     39 H10        18.8278   -21.6216    12.3116 H          1           0.4047
     40 H11        16.1772   -22.3393    11.5925 H          1           0.1037
     41 H12        17.9145   -24.5211    12.7902 H          1           0.0781
     42 H13        16.1298   -24.3967    12.7490 H          1           0.0741
     43 H14        16.2610   -26.9830    11.5413 H          1           0.1138
     44 H15        16.3730   -27.9718     9.2918 H          1           0.1195
     45 H16        17.1971   -26.6297     7.3974 H          1           0.1221
     46 H17        17.9069   -24.3021     7.7573 H          1           0.1314
     47 H18        18.9358   -22.8580    10.4428 H          1           0.1086
     48 H19        17.5066   -22.2232     8.3325 H          1           0.1223
     49 H20        16.2664   -21.7402     9.5143 H          1           0.0530
     50 H21        19.9779   -21.4132     9.1551 H          1           0.1254
     51 H22        21.1770   -19.2992     9.5279 H          1           0.1195
     52 H23        18.7135   -15.2801    10.9047 H          1           0.1239
     53 H24        18.5350   -15.7117     9.1739 H          1           0.0704
@<TRIPOS>BOND
     1    1    2 1
     2    1    3 1
     3    1    4 1
     4    1    5 1
     5    5    6 1
     6    5   33 1
     7    5   34 1
     8    6    7 1
     9    6   35 1
    10    6   36 1
    11    7    8 1
    12    7   37 1
    13    7   38 1
    14    8    9 2
    15    8   10 am
    16   10   11 1
    17   10   39 1
    18   11   19 1
    19   11   12 1
    20   11   40 1
    21   12   13 1
    22   12   41 1
    23   12   42 1
    24   13   18 ar
    25   13   14 ar
    26   14   15 ar
    27   14   43 1
    28   15   16 ar
    29   15   44 1
    30   16   17 ar
    31   16   45 1
    32   17   18 ar
    33   17   46 1
    34   18   19 1
    35   19   20 1
    36   19   47 1
    37   20   21 1
    38   20   48 1
    39   20   49 1
    40   21   29 ar
    41   21   22 ar
    42   22   23 ar
    43   22   50 1
    44   23   24 ar
    45   23   51 1
    46   24   28 ar
    47   24   25 1
    48   25   26 1
    49   26   27 1
    50   26   52 1
    51   26   53 1
    52   27   28 1
    53   28   29 ar
    54   29   30 1
    55   30   31 1
    56   30   32 2
