AVX17375_2, 3
##########                 Name:           AVX17375_0
##########          Protonation:                  100
##########               SMILES:   c1ccc2c(c1)C[C@H]([C@H]2Cc3ccc4c(c3C(=O)[O-])OCO4)O
##########            Long Name:   5-[[(1S,2R)-2-hydroxyindan-1-yl]methyl]-1,3-benzodioxole-4-carboxylate
##########          FlexRecCode: 1
##########               Number:                  307
##########   Ligand Source File: /raid1/people/rgc/Examples/sampl4/screening/ligands/build_1//sampl4-hivint-00000
##########           GlobalRank: 67
##########                 Rank:                    1
##########               Setnum:                    7
##########             Matchnum:                  371
##########                Cloud:                    1
##########        Electrostatic:           -36.921780
##########        Van der Waals:           -16.588760
##########  Ligand Polar Desolv:            17.363697
########## Ligand Apolar Desolv:            -3.131474
##########      Internal Energy:             0.000000
##########      Receptor Energy: 0.0
########## Receptor Desolvation:             0.000000
########## Receptor Hydrophobic:             0.000000
##########         Total Energy: -39.28
##########        Ligand Charge:            -1.000000
##########            Arbitrary:    +999.9990
##########     heavy atom count:   23
##########           pose count:    1
##########        Ligand Energy:             0.000000
# num electro vdwattr vdwrepu polsolv apolsol rdesolv rhydroe totalscore fullpol fullapo
#   1   -5.37   -1.74    0.80    3.82    0.52    0.00    0.00      -1.98   11.13    1.52
#   2    1.10   -0.70    0.10   -0.57   -0.06    0.00    0.00      -0.13   -1.78   -0.18
#   3   -0.90   -1.13    0.26    0.29   -0.11    0.00    0.00      -1.58    0.74   -0.27
#   4   -0.83   -1.69    0.63    0.50   -0.19    0.00    0.00      -1.58    1.14   -0.43
#   5   -0.53   -1.77    0.36    0.34   -0.25    0.00    0.00      -1.86    0.62   -0.47
#   6   -0.15   -2.89    0.85    0.31   -0.27    0.00    0.00      -2.16    0.53   -0.47
#   7   -0.25   -4.76    3.38    0.60   -0.27    0.00    0.00      -1.29    1.07   -0.47
#   8   -0.75   -3.17    2.28    0.94   -0.19    0.00    0.00      -0.87    2.04   -0.40
#   9   -0.81   -1.92    1.38    0.84   -0.14    0.00    0.00      -0.64    2.10   -0.35
#  10   -0.75   -0.68    0.11    0.39   -0.06    0.00    0.00      -0.99    1.22   -0.18
#  11   -1.33   -1.61    1.61    0.31   -0.06    0.00    0.00      -1.08    0.78   -0.16
#  12   -1.87   -1.98    0.52    0.72   -0.14    0.00    0.00      -2.74    1.62   -0.32
#  13   -3.29   -3.83    2.05    0.59   -0.21    0.00    0.00      -4.69    1.06   -0.38
#  14   -3.63   -4.79    4.07    0.44   -0.28    0.00    0.00      -4.18    0.75   -0.47
#  15    0.50   -3.76    4.16   -0.28   -0.18    0.00    0.00       0.44   -0.53   -0.33
#  16   -9.17   -2.93    1.49    2.95    0.31    0.00    0.00      -7.35    4.96    0.52
#  17    4.12   -1.78    0.73   -1.54    0.01    0.00    0.00       1.54   -3.19    0.02
#  18   -8.26   -1.03    0.10    3.74    0.18    0.00    0.00      -5.28   10.15    0.48
#  19    1.48   -1.69    0.52    0.18   -0.13    0.00    0.00       0.36    0.45   -0.33
#  20   -2.82   -1.23    0.18    2.22   -0.15    0.00    0.00      -1.81    5.90   -0.40
#  21   15.66   -0.78    0.09   -5.07   -0.03    0.00    0.00       9.87  -20.89   -0.11
#  22  -12.66   -0.55    0.04    7.41   -0.09    0.00    0.00      -5.86   33.47   -0.42
#  23  -25.88   -1.39    0.85    8.24   -0.10    0.00    0.00     -18.28   32.24   -0.39
#  24    0.85   -0.07    0.01   -1.39    0.36    0.00    0.00      -0.25   -4.86    1.24
#  25    0.51   -0.15    0.02   -0.17   -0.04    0.00    0.00       0.17   -1.12   -0.28
#  26    0.84   -0.73    0.44   -0.47   -0.12    0.00    0.00      -0.04   -1.05   -0.28
#  27    0.38   -0.31    0.08   -0.28   -0.07    0.00    0.00      -0.20   -1.04   -0.28
#  28    0.47   -0.28    0.02   -0.27   -0.10    0.00    0.00      -0.16   -0.77   -0.28
#  29   -0.32   -0.87    0.90   -0.37   -0.16    0.00    0.00      -0.82   -0.63   -0.28
#  30   -0.21   -1.86    3.56   -0.76   -0.18    0.00    0.00       0.56   -1.20   -0.28
#  31    1.23   -0.56    0.22   -0.45   -0.10    0.00    0.00       0.34   -1.18   -0.27
#  32    1.74   -0.16    0.03    0.07   -0.03    0.00    0.00       1.65    0.51   -0.23
#  33    3.24   -0.59    0.75    0.01   -0.06    0.00    0.00       3.35    0.03   -0.22
#  34    1.72   -1.11    3.30   -1.05   -0.12    0.00    0.00       2.74   -2.42   -0.28
#  35    3.18   -1.28    1.59   -1.62   -0.18    0.00    0.00       1.69   -2.55   -0.28
#  36    3.20   -1.20    1.17   -1.48   -0.19    0.00    0.00       1.50   -2.23   -0.28
#  37    1.85   -1.11    3.07   -1.01   -0.12    0.00    0.00       2.69   -2.41   -0.28
#  38    0.80   -0.89    0.63   -0.78   -0.13    0.00    0.00      -0.36   -1.72   -0.28

@<TRIPOS>MOLECULE
       AVX17375_0       100
   38    41     0     0     0



@<TRIPOS>ATOM
      1 O1         18.0140   -17.9275     8.3648 O.3        1          -0.5439
      2 C1         19.0613   -18.4931     9.1555 C.3        1           0.1101
      3 C2         20.3393   -18.6906     8.3130 C.3        1          -0.1120
      4 C3         20.9659   -19.9652     8.8367 C.ar       1          -0.0986
      5 C4         22.2516   -20.4590     8.6907 C.ar       1          -0.1120
      6 C5         22.6028   -21.6641     9.2665 C.ar       1          -0.1264
      7 C6         21.6686   -22.3807     9.9911 C.ar       1          -0.1213
      8 C7         20.3861   -21.8901    10.1379 C.ar       1          -0.0910
      9 C8         20.0319   -20.6817     9.5611 C.ar       1          -0.0711
     10 C9         18.7137   -19.9376     9.5739 C.3        1          -0.0466
     11 C10        17.7421   -20.5619     8.5704 C.3        1          -0.0484
     12 C11        17.4567   -21.9873     8.9675 C.ar       1          -0.0580
     13 C12        17.7671   -23.0173     8.1077 C.ar       1          -0.1103
     14 C13        17.5085   -24.3306     8.4651 C.ar       1          -0.1170
     15 C14        16.9349   -24.6233     9.6908 C.ar       1           0.0145
     16 O2         16.5873   -25.8118    10.2663 O.3        1          -0.3177
     17 C15        16.4296   -25.5269    11.6689 C.3        1           0.2110
     18 O3         16.0685   -24.1333    11.6960 O.3        1          -0.2995
     19 C16        16.6149   -23.5934    10.5718 C.ar       1           0.0444
     20 C17        16.8815   -22.2654    10.2125 C.ar       1          -0.0855
     21 C18        16.5531   -21.1686    11.1373 C.2        1           0.5366
     22 O4         17.3823   -20.7859    11.9514 O.co2      1          -0.6777
     23 O5         15.4511   -20.6394    11.0920 O.co2      1          -0.6797
     24 H1         18.1846   -17.0203     8.0768 H          1           0.3721
     25 H2         19.2617   -17.8741    10.0300 H          1           0.0703
     26 H3         20.0843   -18.8000     7.2589 H          1           0.0879
     27 H4         21.0186   -17.8499     8.4535 H          1           0.0725
     28 H5         22.9818   -19.9000     8.1244 H          1           0.1146
     29 H6         23.6062   -22.0465     9.1505 H          1           0.1185
     30 H7         21.9416   -23.3235    10.4419 H          1           0.1200
     31 H8         19.6569   -22.4504    10.7042 H          1           0.1204
     32 H9         18.2832   -19.9482    10.5752 H          1           0.1073
     33 H10        16.8121   -19.9933     8.5634 H          1           0.1005
     34 H11        18.1863   -20.5439     7.5752 H          1           0.0646
     35 H12        18.2145   -22.8000     7.1490 H          1           0.1267
     36 H13        17.7555   -25.1309     7.7833 H          1           0.1245
     37 H14        15.6343   -26.1372    12.0967 H          1           0.1237
     38 H15        17.3671   -25.6901    12.2006 H          1           0.0763
@<TRIPOS>BOND
     1    1    2 1
     2    1   24 1
     3    2   10 1
     4    2    3 1
     5    2   25 1
     6    3    4 1
     7    3   26 1
     8    3   27 1
     9    4    9 ar
    10    4    5 ar
    11    5    6 ar
    12    5   28 1
    13    6    7 ar
    14    6   29 1
    15    7    8 ar
    16    7   30 1
    17    8    9 ar
    18    8   31 1
    19    9   10 1
    20   10   11 1
    21   10   32 1
    22   11   12 1
    23   11   33 1
    24   11   34 1
    25   12   20 ar
    26   12   13 ar
    27   13   14 ar
    28   13   35 1
    29   14   15 ar
    30   14   36 1
    31   15   19 ar
    32   15   16 1
    33   16   17 1
    34   17   18 1
    35   17   37 1
    36   17   38 1
    37   18   19 1
    38   19   20 ar
    39   20   21 1
    40   21   22 1
    41   21   23 2
