AVX38787_1, 3
##########                 Name:           AVX38787_0
##########          Protonation:                   23
##########               SMILES:   CN(Cc1ccccc1C(=O)NCC2CCCCC2)Cc3ccc4c(c3C(=O)[O-])OC[C@@H](O4)CCC(=O)[O-]
##########            Long Name:   ]methyl]-2-(3-oxido-3-oxo-propyl)-2,3-dihydro-1,4-benzodioxine-5-carboxylate
##########          FlexRecCode: 1
##########               Number:                  488
##########   Ligand Source File: /raid1/people/rgc/Examples/sampl4/screening/ligands/build_1//sampl4-hivint-00000
##########           GlobalRank: 107
##########                 Rank:                    1
##########               Setnum:                    7
##########             Matchnum:                14828
##########                Cloud:                    1
##########        Electrostatic:           -41.296463
##########        Van der Waals:            -5.098431
##########  Ligand Polar Desolv:            17.998360
########## Ligand Apolar Desolv:            -3.624236
##########      Internal Energy:             0.000000
##########      Receptor Energy: 0.0
########## Receptor Desolvation:             0.000000
########## Receptor Hydrophobic:             0.000000
##########         Total Energy: -32.02
##########        Ligand Charge:            -2.000000
##########            Arbitrary:    +999.9990
##########     heavy atom count:   38
##########           pose count:    1
##########        Ligand Energy:             0.000000
# num electro vdwattr vdwrepu polsolv apolsol rdesolv rhydroe totalscore fullpol fullapo
#   1    0.49   -1.46    0.47   -0.28   -0.21    0.00    0.00      -0.99   -0.57   -0.43
#   2   -9.59   -1.54    0.30    5.43    0.79    0.00    0.00      -4.60   13.54    1.96
#   3    0.78   -2.23    1.69   -1.05   -0.14    0.00    0.00      -0.94   -2.39   -0.31
#   4   -0.08   -2.31    1.82    0.48   -0.14    0.00    0.00      -0.22    1.11   -0.32
#   5   -0.71   -2.37    0.78    1.01   -0.23    0.00    0.00      -1.53    1.88   -0.42
#   6   -0.63   -2.33    1.27    0.32   -0.26    0.00    0.00      -1.63    0.58   -0.47
#   7   -1.17   -2.30    0.92    0.31   -0.22    0.00    0.00      -2.45    0.68   -0.47
#   8   -0.89   -1.58    0.33    0.28   -0.17    0.00    0.00      -2.03    0.71   -0.44
#   9   -1.38   -1.44    0.69    0.92   -0.15    0.00    0.00      -1.36    2.59   -0.41
#  10    8.57   -0.93    0.26   -2.88   -0.17    0.00    0.00       4.86  -10.95   -0.65
#  11   -7.09   -1.05    0.55    3.83    0.07    0.00    0.00      -3.70   16.80    0.31
#  12  -13.48   -0.80    0.06    2.87    0.58    0.00    0.00     -10.77   10.95    2.20
#  13    2.54   -0.41    0.03   -0.50   -0.08    0.00    0.00       1.57   -2.37   -0.38
#  14   -1.21   -0.39    0.02    0.20   -0.03    0.00    0.00      -1.41    0.91   -0.15
#  15   -1.57   -1.45    0.48    0.39   -0.08    0.00    0.00      -2.23    1.09   -0.22
#  16   -0.28   -1.48    0.49    0.30   -0.09    0.00    0.00      -1.06    0.87   -0.25
#  17   -0.16   -1.11    0.80    0.29   -0.06    0.00    0.00      -0.25    1.13   -0.25
#  18   -0.15   -0.22    0.01    0.16   -0.03    0.00    0.00      -0.24    1.28   -0.25
#  19   -0.61   -0.22    0.01    0.23   -0.03    0.00    0.00      -0.62    1.75   -0.22
#  20    2.18   -1.21    0.33   -2.19   -0.11    0.00    0.00      -0.99   -5.82   -0.28
#  21   -0.57   -1.25    0.16    0.41   -0.12    0.00    0.00      -1.36    1.29   -0.39
#  22   -0.77   -3.41    2.35    0.77   -0.15    0.00    0.00      -1.20    2.01   -0.38
#  23   -0.75   -2.76    3.33    0.71   -0.15    0.00    0.00       0.38    2.18   -0.46
#  24    0.15   -0.68    0.09   -0.07   -0.06    0.00    0.00      -0.58   -0.36   -0.30
#  25   -0.87   -0.31    0.02    1.40    0.09    0.00    0.00       0.33    9.92    0.62
#  26    0.11   -0.10    0.00   -0.12   -0.01    0.00    0.00      -0.12   -2.16   -0.12
#  27   -0.15   -0.11    0.00    0.11   -0.01    0.00    0.00      -0.16    1.63   -0.18
#  28   -0.16   -0.14    0.01    0.39   -0.02    0.00    0.00       0.08    4.86   -0.25
#  29    0.40   -0.10    0.00   -0.68   -0.01    0.00    0.00      -0.39  -18.86   -0.16
#  30   -0.59   -0.04    0.00    0.53   -0.01    0.00    0.00      -0.12   32.72   -0.41
#  31   -0.49   -0.10    0.00    1.45   -0.02    0.00    0.00       0.85   34.85   -0.43
#  32    0.06   -0.13    0.01   -0.04   -0.01    0.00    0.00      -0.10   -0.46   -0.12
#  33   -2.35   -0.45    0.16    1.57    0.03    0.00    0.00      -1.04   12.77    0.27
#  34    0.88   -0.43    0.03   -0.33   -0.05    0.00    0.00       0.10   -1.93   -0.30
#  35   -2.49   -0.59    0.04    2.09   -0.09    0.00    0.00      -1.04    9.48   -0.41
#  36   17.30   -1.32    1.41   -4.85   -0.04    0.00    0.00      12.51  -23.34   -0.17
#  37  -26.42   -1.49    1.35    8.14   -0.08    0.00    0.00     -18.50   34.66   -0.33
#  38  -25.75   -1.56    1.34    9.78   -0.15    0.00    0.00     -16.33   37.44   -0.59
#  39    0.69   -0.41    0.09   -0.28   -0.11    0.00    0.00      -0.03   -0.68   -0.28
#  40    1.67   -0.44    0.12   -0.40   -0.10    0.00    0.00       0.85   -0.91   -0.22
#  41    1.15   -1.24    2.60   -1.21   -0.12    0.00    0.00       1.18   -2.38   -0.24
#  42    0.56   -1.69    8.12   -0.61   -0.08    0.00    0.00       6.29   -1.46   -0.20
#  43    0.18   -1.46    3.62   -0.33   -0.13    0.00    0.00       1.87   -0.68   -0.27
#  44    0.19   -0.61    0.21   -1.00   -0.16    0.00    0.00      -1.35   -1.80   -0.28
#  45    0.48   -0.48    0.13   -0.57   -0.13    0.00    0.00      -0.59   -1.20   -0.28
#  46    1.14   -0.85    0.64   -0.41   -0.13    0.00    0.00       0.38   -0.91   -0.28
#  47    0.81   -0.43    0.26   -0.40   -0.07    0.00    0.00       0.17   -1.34   -0.22
#  48    6.75   -0.02    0.00   -1.10    0.09    0.00    0.00       5.71   -4.62    0.39
#  49    2.32   -0.22    0.05   -0.02   -0.05    0.00    0.00       2.08   -0.15   -0.28
#  50    1.06   -0.07    0.00   -0.04   -0.02    0.00    0.00       0.93   -0.63   -0.28
#  51    0.82   -0.09    0.00   -0.08   -0.02    0.00    0.00       0.63   -1.15   -0.28
#  52    0.99   -0.66    0.36   -0.18   -0.10    0.00    0.00       0.40   -0.50   -0.28
#  53    1.37   -0.80    0.50   -0.27   -0.08    0.00    0.00       0.72   -0.78   -0.24
#  54    0.17   -1.15    1.07   -0.29   -0.13    0.00    0.00      -0.33   -0.65   -0.28
#  55    0.13   -0.26    0.04   -0.14   -0.07    0.00    0.00      -0.29   -0.60   -0.28
#  56    0.06   -0.72    0.84   -0.15   -0.08    0.00    0.00      -0.04   -0.52   -0.28
#  57    0.07   -0.30    0.23   -0.11   -0.04    0.00    0.00      -0.16   -0.73   -0.28
#  58    0.06   -0.04    0.00   -0.02   -0.01    0.00    0.00      -0.01   -0.71   -0.28
#  59    0.08   -0.04    0.00   -0.02   -0.01    0.00    0.00       0.01   -0.78   -0.28
#  60    0.31   -0.03    0.00   -0.02   -0.01    0.00    0.00       0.25   -0.56   -0.28
#  61    0.34   -0.10    0.00   -0.07   -0.03    0.00    0.00       0.14   -0.75   -0.28
#  62    1.68   -0.22    0.02   -0.04   -0.05    0.00    0.00       1.39   -0.20   -0.22
#  63    1.06   -1.31    2.60   -0.26   -0.10    0.00    0.00       2.00   -0.66   -0.25
#  64   -0.05   -2.19    7.50   -2.61   -0.11    0.00    0.00       2.54   -5.10   -0.22
#  65    0.47   -1.13    3.24   -1.93   -0.11    0.00    0.00       0.55   -4.94   -0.28
#  66    0.07   -0.02    0.00   -0.04    0.00    0.00    0.00       0.01   -2.66   -0.28
#  67    0.29   -0.05    0.00   -0.08   -0.01    0.00    0.00       0.14   -1.77   -0.28
#  68    0.13   -0.02    0.00   -0.06    0.00    0.00    0.00       0.05   -3.19   -0.28
#  69    0.04   -0.08    0.01   -0.26   -0.02    0.00    0.00      -0.31   -3.18   -0.28
#  70    0.05   -0.04    0.00   -0.10   -0.01    0.00    0.00      -0.10   -2.65   -0.27
#  71    0.32   -0.03    0.00   -0.14   -0.01    0.00    0.00       0.14   -4.81   -0.28
#  72    0.15   -0.03    0.00   -0.10   -0.01    0.00    0.00       0.01   -2.49   -0.28

@<TRIPOS>MOLECULE
       AVX38787_0        23
   72    75     0     0     0



@<TRIPOS>ATOM
      1 C1         18.1459   -22.8638     9.2611 C.3        1           0.0198
      2 N1         18.4790   -22.3147    10.5822 N.3        1          -0.5248
      3 C2         19.9249   -22.0879    10.7088 C.3        1           0.0877
      4 C3         20.3747   -21.1118     9.6524 C.ar       1          -0.0082
      5 C4         21.5171   -21.3628     8.9205 C.ar       1          -0.1230
      6 C5         21.9313   -20.4678     7.9504 C.ar       1          -0.0991
      7 C6         21.2041   -19.3159     7.7072 C.ar       1          -0.1354
      8 C7         20.0598   -19.0533     8.4315 C.ar       1          -0.0922
      9 C8         19.6334   -19.9549     9.4082 C.ar       1          -0.1122
     10 C9         18.4049   -19.6826    10.1842 C.2        1           0.5480
     11 O1         18.3044   -20.0888    11.3255 O.2        1          -0.4869
     12 N2         17.3964   -18.9837     9.6265 N.am       1          -0.7332
     13 C10        16.1790   -18.7137    10.3956 C.3        1           0.1249
     14 C11        15.5656   -17.3913     9.9316 C.3        1          -0.0971
     15 C12        15.2192   -17.4837     8.4442 C.3        1          -0.1142
     16 C13        14.6057   -16.1611     7.9803 C.3        1          -0.1187
     17 C14        15.6100   -15.0280     8.2005 C.3        1          -0.1200
     18 C15        15.9563   -14.9355     9.6878 C.3        1          -0.1184
     19 C16        16.5698   -16.2581    10.1519 C.3        1          -0.1145
     20 C17        17.9873   -23.1893    11.6551 C.3        1           0.1283
     21 C18        17.8941   -22.4057    12.9389 C.ar       1          -0.0440
     22 C19        18.9752   -22.3463    13.7900 C.ar       1          -0.1190
     23 C20        18.8973   -21.6289    14.9724 C.ar       1          -0.1270
     24 C21        17.7313   -20.9627    15.3128 C.ar       1           0.0244
     25 O2         17.6702   -20.2655    16.4805 O.3        1          -0.3053
     26 C22        16.6201   -19.3004    16.5983 C.3        1           0.0509
     27 C23        16.9141   -18.1000    15.6966 C.3        1          -0.0805
     28 C24        17.9229   -17.1791    16.3861 C.3        1          -0.1790
     29 C25        17.3505   -16.6967    17.6940 C.2        1           0.4921
     30 O3         16.3121   -16.0578    17.7063 O.co2      1          -0.7017
     31 O4         17.9256   -16.9454    18.7399 O.co2      1          -0.7118
     32 C26        15.3198   -19.9799    16.1529 C.3        1           0.0197
     33 O5         15.4835   -20.3608    14.7831 O.3        1          -0.2622
     34 C27        16.6315   -21.0110    14.4637 C.ar       1           0.0810
     35 C28        16.7109   -21.7332    13.2644 C.ar       1          -0.1423
     36 C29        15.5545   -21.7880    12.3557 C.2        1           0.5260
     37 O6         15.4271   -20.9467    11.4765 O.co2      1          -0.6949
     38 O7         14.7208   -22.6747    12.4792 O.co2      1          -0.6703
     39 H1         17.0696   -23.0221     9.1942 H          1           0.0190
     40 H2         18.4590   -22.1632     8.4869 H          1           0.0702
     41 H3         18.6622   -23.8137     9.1218 H          1           0.0556
     42 H4         20.1437   -21.6812    11.6961 H          1           0.1097
     43 H5         20.4534   -23.0323    10.5795 H          1           0.0318
     44 H6         22.0894   -22.2598     9.1057 H          1           0.1255
     45 H7         22.8265   -20.6688     7.3806 H          1           0.1218
     46 H8         21.5332   -18.6209     6.9490 H          1           0.1221
     47 H9         19.4931   -18.1539     8.2406 H          1           0.1202
     48 H10        17.4765   -18.6597     8.7156 H          1           0.3920
     49 H11        15.4636   -19.5210    10.2387 H          1           0.0728
     50 H12        16.4259   -18.6479    11.4553 H          1           0.0668
     51 H13        14.6598   -17.1903    10.5037 H          1           0.0757
     52 H14        16.1248   -17.6847     7.8720 H          1           0.0643
     53 H15        14.5037   -18.2909     8.2874 H          1           0.0598
     54 H16        14.3589   -16.2270     6.9206 H          1           0.0586
     55 H17        13.6999   -15.9601     8.5524 H          1           0.0605
     56 H18        16.5157   -15.2289     7.6283 H          1           0.0608
     57 H19        15.1729   -14.0858     7.8699 H          1           0.0576
     58 H20        16.6717   -14.1283     9.8447 H          1           0.0624
     59 H21        15.0507   -14.7345    10.2600 H          1           0.0615
     60 H22        16.8167   -16.1922    11.2114 H          1           0.0695
     61 H23        17.4755   -16.4592     9.5796 H          1           0.0658
     62 H24        17.0012   -23.5707    11.3898 H          1           0.0684
     63 H25        18.6759   -24.0238    11.7879 H          1           0.0887
     64 H26        19.8889   -22.8621    13.5341 H          1           0.1316
     65 H27        19.7506   -21.5892    15.6333 H          1           0.1183
     66 H28        16.5333   -18.9725    17.6342 H          1           0.0734
     67 H29        17.3283   -18.4489    14.7507 H          1           0.0705
     68 H30        15.9910   -17.5516    15.5089 H          1           0.0801
     69 H31        18.8461   -17.7274    16.5738 H          1           0.0546
     70 H32        18.1324   -16.3238    15.7438 H          1           0.0643
     71 H33        15.1360   -20.8640    16.7635 H          1           0.1126
     72 H34        14.4869   -19.2829    16.2464 H          1           0.0667
@<TRIPOS>BOND
     1    1    2 1
     2    1   39 1
     3    1   40 1
     4    1   41 1
     5    2    3 1
     6    2   20 1
     7    3    4 1
     8    3   42 1
     9    3   43 1
    10    4    9 ar
    11    4    5 ar
    12    5    6 ar
    13    5   44 1
    14    6    7 ar
    15    6   45 1
    16    7    8 ar
    17    7   46 1
    18    8    9 ar
    19    8   47 1
    20    9   10 1
    21   10   11 2
    22   10   12 am
    23   12   13 1
    24   12   48 1
    25   13   14 1
    26   13   49 1
    27   13   50 1
    28   14   19 1
    29   14   15 1
    30   14   51 1
    31   15   16 1
    32   15   52 1
    33   15   53 1
    34   16   17 1
    35   16   54 1
    36   16   55 1
    37   17   18 1
    38   17   56 1
    39   17   57 1
    40   18   19 1
    41   18   58 1
    42   18   59 1
    43   19   60 1
    44   19   61 1
    45   20   21 1
    46   20   62 1
    47   20   63 1
    48   21   35 ar
    49   21   22 ar
    50   22   23 ar
    51   22   64 1
    52   23   24 ar
    53   23   65 1
    54   24   34 ar
    55   24   25 1
    56   25   26 1
    57   26   27 1
    58   26   32 1
    59   26   66 1
    60   27   28 1
    61   27   67 1
    62   27   68 1
    63   28   29 1
    64   28   69 1
    65   28   70 1
    66   29   30 1
    67   29   31 2
    68   32   33 1
    69   32   71 1
    70   32   72 1
    71   33   34 1
    72   34   35 ar
    73   35   36 1
    74   36   37 1
    75   36   38 2
