AVX38783_1, 3
##########                 Name:           AVX38783_0
##########          Protonation:                   61
##########               SMILES:   =CC[NH+](Cc1ccccc1C(=O)NCc2ccco2)Cc3ccc4c(c3C(=O)[O-])OC[C@H](O4)CCC(=O)[O-]
##########            Long Name:   ]methyl]-2-(3-oxido-3-oxo-propyl)-2,3-dihydro-1,4-benzodioxine-5-carboxylate
##########          FlexRecCode: 1
##########               Number:                  738
##########   Ligand Source File: /raid1/people/rgc/Examples/sampl4/screening/ligands/build_1//sampl4-hivint-00000
##########           GlobalRank: 58
##########                 Rank:                    1
##########               Setnum:                   23
##########             Matchnum:                 6791
##########                Cloud:                    1
##########        Electrostatic:           -34.890144
##########        Van der Waals:           -25.992081
##########  Ligand Polar Desolv:            24.228844
########## Ligand Apolar Desolv:            -3.226539
##########      Internal Energy:             0.000000
##########      Receptor Energy: 0.0
########## Receptor Desolvation:             0.000000
########## Receptor Hydrophobic:             0.000000
##########         Total Energy: -39.88
##########        Ligand Charge:            -1.000000
##########            Arbitrary:    +999.9990
##########     heavy atom count:   39
##########           pose count:    1
##########        Ligand Energy:             0.000000
# num electro vdwattr vdwrepu polsolv apolsol rdesolv rhydroe totalscore fullpol fullapo
#   1  -30.06   -2.21    1.77   11.05   -0.15    0.00    0.00     -19.60   29.34   -0.41
#   2   14.67   -1.06    0.12   -5.49   -0.05    0.00    0.00       8.18  -16.33   -0.16
#   3  -19.01   -0.73    0.09    8.32   -0.11    0.00    0.00     -11.44   31.15   -0.43
#   4   -3.73   -1.06    0.21    1.46   -0.10    0.00    0.00      -3.22    3.79   -0.25
#   5   -2.10   -1.03    0.18    0.67   -0.08    0.00    0.00      -2.36    1.56   -0.18
#   6    1.39   -0.56    0.03   -0.64   -0.04    0.00    0.00       0.18   -2.00   -0.12
#   7    0.47   -0.82    0.14   -0.20   -0.04    0.00    0.00      -0.45   -0.56   -0.12
#   8   -5.39   -0.75    0.07    2.41    0.08    0.00    0.00      -3.59    8.56    0.27
#   9    1.27   -0.61    0.09   -0.12   -0.06    0.00    0.00       0.56   -0.63   -0.30
#  10   -0.74   -0.42    0.03    0.40   -0.04    0.00    0.00      -0.77    2.74   -0.30
#  11    2.93   -0.55    0.04   -2.39   -0.03    0.00    0.00       0.00  -12.83   -0.15
#  12   -1.52   -1.15    0.47    6.05   -0.14    0.00    0.00       3.72   25.65   -0.59
#  13   -3.58   -0.47    0.02    2.71   -0.05    0.00    0.00      -1.37   14.14   -0.25
#  14   -0.48   -0.40    0.05    0.06   -0.03    0.00    0.00      -0.79    0.45   -0.23
#  15    0.07   -0.12    0.00   -0.01   -0.02    0.00    0.00      -0.08   -0.12   -0.28
#  16   -0.28   -0.23    0.01    0.00    0.01    0.00    0.00      -0.49   -0.04    0.07
#  17    0.51    0.00    0.00   -0.17    0.02    0.00    0.00       0.35   -2.67    0.29
#  18    0.02   -0.48    0.13    0.03   -0.07    0.00    0.00      -0.37    0.15   -0.37
#  19   -0.12   -1.20    0.40    0.15   -0.09    0.00    0.00      -0.86    0.55   -0.35
#  20   -0.09   -1.62    0.59    0.23   -0.11    0.00    0.00      -0.99    0.74   -0.34
#  21    0.02   -0.09    0.00    0.00   -0.01    0.00    0.00      -0.08    0.09   -0.28
#  22   -0.06   -0.17    0.00   -0.01   -0.02    0.00    0.00      -0.26   -0.22   -0.31
#  23   -0.09   -0.17    0.00   -0.05   -0.03    0.00    0.00      -0.32   -0.67   -0.39
#  24   -0.08   -0.42    0.03   -0.07   -0.06    0.00    0.00      -0.60   -0.51   -0.47
#  25   -0.09   -0.96    0.20   -0.05   -0.10    0.00    0.00      -1.01   -0.26   -0.47
#  26   -0.07   -0.78    0.13    0.03   -0.08    0.00    0.00      -0.77    0.16   -0.44
#  27   -0.09   -0.33    0.02    0.06   -0.05    0.00    0.00      -0.38    0.48   -0.40
#  28    0.45   -0.33    0.03   -0.56   -0.07    0.00    0.00      -0.48   -4.89   -0.63
#  29   -0.39   -0.18    0.00    0.56    0.02    0.00    0.00       0.01    6.84    0.21
#  30   -0.63   -0.60    0.13    1.30    0.39    0.00    0.00       0.59    7.72    2.32
#  31    0.18   -0.44    0.04   -0.84   -0.10    0.00    0.00      -1.16   -3.79   -0.47
#  32   -0.06   -1.09    0.20    0.29   -0.09    0.00    0.00      -0.76    0.99   -0.31
#  33   -0.36   -1.22    0.28    0.90   -0.18    0.00    0.00      -0.57    2.58   -0.51
#  34   -0.50   -1.39    0.15    1.00   -0.23    0.00    0.00      -0.97    2.26   -0.51
#  35   -0.07   -2.51    0.84    0.08   -0.12    0.00    0.00      -1.77    0.19   -0.27
#  36   -0.32   -1.71    0.41    1.02    0.09    0.00    0.00      -0.51    2.71    0.25
#  37   -0.48   -0.91    0.45    0.03   -0.07    0.00    0.00      -0.97    0.19   -0.39
#  38   -0.98   -1.57    1.81    0.31   -0.09    0.00    0.00      -0.53    1.49   -0.46
#  39    0.84   -1.08    0.78    0.03   -0.06    0.00    0.00       0.50    0.16   -0.30
#  40   -4.89   -0.80    0.17    2.02    0.16    0.00    0.00      -3.33    7.61    0.62
#  41    0.76   -0.31    0.05   -0.65   -0.07    0.00    0.00      -0.23   -2.44   -0.28
#  42    1.12   -0.60    0.33   -0.86   -0.10    0.00    0.00      -0.12   -2.25   -0.27
#  43    1.30   -0.57    0.33   -0.45   -0.10    0.00    0.00       0.51   -1.27   -0.28
#  44    2.87   -0.39    0.09   -0.86   -0.11    0.00    0.00       1.59   -2.17   -0.28
#  45    2.67   -0.18    0.03   -0.24   -0.04    0.00    0.00       2.24   -1.78   -0.28
#  46    1.35   -0.23    0.02   -0.37   -0.07    0.00    0.00       0.70   -1.49   -0.28
#  47    4.15   -0.61    0.72   -0.96   -0.09    0.00    0.00       3.20   -2.97   -0.28
#  48    0.12   -0.02    0.00    0.03   -0.01    0.00    0.00       0.12    1.23   -0.27
#  49    0.14   -0.03    0.00   -0.01    0.00    0.00    0.00       0.10   -0.59   -0.15
#  50    0.07   -0.09    0.01    0.10   -0.02    0.00    0.00       0.07    0.99   -0.20
#  51    0.10   -0.33    0.34    0.42   -0.05    0.00    0.00       0.48    2.30   -0.28
#  52    0.10   -0.26    0.08   -0.12   -0.05    0.00    0.00      -0.25   -0.53   -0.22
#  53    0.05   -0.31    0.11   -0.02   -0.06    0.00    0.00      -0.24   -0.11   -0.27
#  54    0.07   -0.40    0.10   -0.17   -0.09    0.00    0.00      -0.50   -0.49   -0.28
#  55    0.11   -0.02    0.00    0.00    0.00    0.00    0.00       0.09    0.07   -0.14
#  56    0.08   -0.03    0.00    0.06   -0.01    0.00    0.00       0.10    2.41   -0.27
#  57    0.12   -0.02    0.00    0.05   -0.01    0.00    0.00       0.14    2.59   -0.28
#  58    0.12   -0.08    0.01    0.12   -0.02    0.00    0.00       0.14    1.53   -0.28
#  59    0.14   -0.41    0.20    0.14   -0.07    0.00    0.00       0.00    0.59   -0.28
#  60    0.14   -0.23    0.07   -0.05   -0.04    0.00    0.00      -0.12   -0.23   -0.22
#  61    0.58   -0.01    0.00   -0.45    0.06    0.00    0.00       0.17   -3.32    0.43
#  62    0.11   -0.11    0.01   -0.10   -0.03    0.00    0.00      -0.12   -0.93   -0.28
#  63    0.07   -0.14    0.01   -0.11   -0.04    0.00    0.00      -0.21   -0.81   -0.28
#  64    0.28   -0.37    0.29   -0.48   -0.07    0.00    0.00      -0.35   -2.00   -0.28
#  65    0.33   -0.33    0.05   -0.44   -0.09    0.00    0.00      -0.49   -1.31   -0.28
#  66    0.52   -0.91    0.50   -0.57   -0.14    0.00    0.00      -0.60   -1.16   -0.28
#  67    0.18   -0.15    0.05    0.02   -0.04    0.00    0.00       0.06    0.14   -0.28
#  68    0.92   -0.30    0.16   -0.35   -0.06    0.00    0.00       0.38   -1.74   -0.28

@<TRIPOS>MOLECULE
       AVX38783_0        61
   68    71     0     0     0



@<TRIPOS>ATOM
      1 O1         14.9861   -24.0337    10.9959 O.co2      1          -0.6992
      2 C1         15.7602   -23.6489    11.8558 C.2        1           0.4904
      3 O2         15.3324   -23.1387    12.8770 O.co2      1          -0.7072
      4 C2         17.2456   -23.8099    11.6588 C.3        1          -0.1787
      5 C3         17.6791   -23.0493    10.4042 C.3        1          -0.0836
      6 C4         17.3440   -21.5652    10.5661 C.3        1           0.0528
      7 C5         17.8040   -20.7922     9.3228 C.3        1           0.0184
      8 O3         17.4899   -19.4084     9.5140 O.3        1          -0.2617
      9 C6         17.8150   -18.8691    10.7167 C.ar       1           0.0906
     10 C7         17.8814   -17.4743    10.8517 C.ar       1          -0.0930
     11 C8         17.6035   -16.6055     9.6966 C.2        1           0.5281
     12 O4         18.5139   -16.2676     8.9524 O.co2      1          -0.6373
     13 O5         16.4623   -16.2211     9.4808 O.co2      1          -0.7097
     14 C9         18.2125   -16.9132    12.0898 C.ar       1          -0.1138
     15 C10        18.2859   -15.4159    12.2438 C.3        1           0.0607
     16 N1         19.6508   -14.9597    11.9490 N.4        1          -0.3539
     17 H1         20.0151   -15.4752    11.1618 H          1           0.4369
     18 C11        20.5068   -15.1860    13.1211 C.3        1           0.0284
     19 C12        21.9520   -15.1933    12.6938 C.2        1          -0.1683
     20 C13        22.7879   -14.3188    13.1961 C.2        1          -0.1474
     21 C14        19.6294   -13.5262    11.6280 C.3        1           0.0226
     22 C15        19.1877   -13.3379    10.1996 C.ar       1          -0.0822
     23 C16        17.8489   -13.1821     9.9046 C.ar       1          -0.1053
     24 C17        17.4418   -13.0091     8.5938 C.ar       1          -0.0927
     25 C18        18.3730   -12.9910     7.5703 C.ar       1          -0.1035
     26 C19        19.7145   -13.1451     7.8516 C.ar       1          -0.0818
     27 C20        20.1325   -13.3148     9.1727 C.ar       1          -0.1087
     28 C21        21.5693   -13.4750     9.4821 C.2        1           0.5436
     29 O6         22.2528   -12.4980     9.7181 O.2        1          -0.5090
     30 N2         22.1213   -14.7044     9.5024 N.am       1          -0.7107
     31 C22        23.5451   -14.8631     9.8090 C.3        1           0.2024
     32 C23        23.9079   -16.3251     9.7671 C.2        1          -0.0412
     33 C24        24.3415   -16.9975     8.6857 C.2        1          -0.1767
     34 C25        24.5607   -18.3330     9.0944 C.2        1          -0.2183
     35 C26        24.2483   -18.3969    10.4012 C.2        1          -0.0268
     36 O7         23.8591   -17.1765    10.8047 O.3        1          -0.1704
     37 C27        18.4709   -17.7305    13.1676 C.ar       1          -0.1136
     38 C28        18.4066   -19.1074    13.0332 C.ar       1          -0.1211
     39 C29        18.0817   -19.6798    11.8133 C.ar       1           0.0632
     40 O8         18.0335   -21.0359    11.7038 O.3        1          -0.2987
     41 H2         17.7723   -23.4109    12.5258 H          1           0.0541
     42 H3         17.4844   -24.8671    11.5436 H          1           0.0633
     43 H4         18.7535   -23.1657    10.2618 H          1           0.0738
     44 H5         17.1524   -23.4482     9.5373 H          1           0.0845
     45 H6         16.2690   -21.4436    10.6985 H          1           0.0767
     46 H7         18.8797   -20.9105     9.1934 H          1           0.0738
     47 H8         17.2836   -21.1690     8.4423 H          1           0.1198
     48 H9         17.5879   -14.9448    11.5518 H          1           0.1027
     49 H10        18.0242   -15.1425    13.2660 H          1           0.1589
     50 H11        20.3467   -14.3891    13.8474 H          1           0.1120
     51 H12        20.2569   -16.1456    13.5735 H          1           0.1199
     52 H13        22.2984   -15.9196    11.9735 H          1           0.1407
     53 H14        22.4415   -13.5925    13.9165 H          1           0.0938
     54 H15        23.8236   -14.3239    12.8900 H          1           0.1120
     55 H16        18.9338   -13.0152    12.2937 H          1           0.1637
     56 H17        20.6283   -13.1100    11.7573 H          1           0.1193
     57 H18        17.1170   -13.1957    10.6987 H          1           0.1380
     58 H19        16.3926   -12.8880     8.3683 H          1           0.1364
     59 H20        18.0486   -12.8562     6.5491 H          1           0.1369
     60 H21        20.4403   -13.1308     7.0519 H          1           0.1336
     61 H22        21.5760   -15.4841     9.3140 H          1           0.4011
     62 H23        24.1380   -14.3204     9.0727 H          1           0.1140
     63 H24        23.7491   -14.4664    10.8036 H          1           0.0894
     64 H25        24.4923   -16.5945     7.6951 H          1           0.1525
     65 H26        24.9116   -19.1460     8.4761 H          1           0.1508
     66 H27        24.3046   -19.2791    11.0217 H          1           0.2049
     67 H28        18.7252   -17.2953    14.1228 H          1           0.1206
     68 H29        18.6113   -19.7395    13.8847 H          1           0.1293
@<TRIPOS>BOND
     1    1    2 1
     2    2    3 2
     3    2    4 1
     4    4    5 1
     5    4   41 1
     6    4   42 1
     7    5    6 1
     8    5   43 1
     9    5   44 1
    10    6   40 1
    11    6    7 1
    12    6   45 1
    13    7    8 1
    14    7   46 1
    15    7   47 1
    16    8    9 1
    17    9   39 ar
    18    9   10 ar
    19   10   11 1
    20   10   14 ar
    21   11   12 1
    22   11   13 2
    23   14   15 1
    24   14   37 ar
    25   15   16 1
    26   15   48 1
    27   15   49 1
    28   16   17 1
    29   16   18 1
    30   16   21 1
    31   18   19 1
    32   18   50 1
    33   18   51 1
    34   19   20 2
    35   19   52 1
    36   20   53 1
    37   20   54 1
    38   21   22 1
    39   21   55 1
    40   21   56 1
    41   22   27 ar
    42   22   23 ar
    43   23   24 ar
    44   23   57 1
    45   24   25 ar
    46   24   58 1
    47   25   26 ar
    48   25   59 1
    49   26   27 ar
    50   26   60 1
    51   27   28 1
    52   28   29 2
    53   28   30 am
    54   30   31 1
    55   30   61 1
    56   31   32 1
    57   31   62 1
    58   31   63 1
    59   32   36 1
    60   32   33 2
    61   33   34 1
    62   33   64 1
    63   34   35 2
    64   34   65 1
    65   35   36 1
    66   35   66 1
    67   37   38 ar
    68   37   67 1
    69   38   39 ar
    70   38   68 1
    71   39   40 1
