AVX38748_0, 3
##########                 Name:           AVX38748_0
##########          Protonation:                  100
##########               SMILES:   1)C[C@H]([C@@H]2Cc3ccc4c(c3C(=O)[O-])OC[C@H](O4)CCC(=O)[O-])NC(=O)CCCC[NH3+]
##########            Long Name:   ]methyl]-2-(3-oxido-3-oxo-propyl)-2,3-dihydro-1,4-benzodioxine-5-carboxylate
##########          FlexRecCode: 1
##########               Number:                  294
##########   Ligand Source File: /raid1/people/rgc/Examples/sampl4/screening/ligands/build_1//sampl4-hivint-00000
##########           GlobalRank: 111
##########                 Rank:                    1
##########               Setnum:                   27
##########             Matchnum:                 4860
##########                Cloud:                    1
##########        Electrostatic:           -47.611485
##########        Van der Waals:            -9.658371
##########  Ligand Polar Desolv:            30.201931
########## Ligand Apolar Desolv:            -3.286805
##########      Internal Energy:             0.000000
##########      Receptor Energy: 0.0
########## Receptor Desolvation:             0.000000
########## Receptor Hydrophobic:             0.000000
##########         Total Energy: -30.35
##########        Ligand Charge:            -1.000000
##########            Arbitrary:    +999.9990
##########     heavy atom count:   36
##########           pose count:    1
##########        Ligand Energy:             0.000000
# num electro vdwattr vdwrepu polsolv apolsol rdesolv rhydroe totalscore fullpol fullapo
#   1   -2.03   -0.69    0.55   -1.92    0.12    0.00    0.00      -3.97  -13.72    0.86
#   2    1.22   -0.01    0.00    1.35    0.07    0.00    0.00       2.63   11.36    0.58
#   3    1.37   -0.01    0.00    1.45    0.07    0.00    0.00       2.88   11.71    0.60
#   4    1.90   -0.03    0.00    1.37    0.08    0.00    0.00       3.33    9.69    0.58
#   5   -0.02   -0.10    0.01    0.03   -0.04    0.00    0.00      -0.12    0.41   -0.49
#   6   -0.29   -0.09    0.00   -0.08   -0.01    0.00    0.00      -0.48   -1.48   -0.24
#   7   -0.11   -0.05    0.00   -0.01   -0.01    0.00    0.00      -0.17   -0.17   -0.19
#   8   -0.19   -0.06    0.00    0.02   -0.01    0.00    0.00      -0.24    0.49   -0.24
#   9    1.43   -0.22    0.01   -0.42   -0.06    0.00    0.00       0.75   -4.69   -0.66
#  10   -1.13   -0.25    0.01    0.76    0.04    0.00    0.00      -0.57    6.71    0.37
#  11   -4.32   -0.31    0.02    1.08    0.24    0.00    0.00      -3.30    8.95    1.96
#  12    1.42   -0.56    0.28   -0.42   -0.04    0.00    0.00       0.68   -2.41   -0.23
#  13   -1.04   -0.40    0.03    0.15   -0.06    0.00    0.00      -1.31    0.70   -0.27
#  14   -2.08   -0.89    0.09    0.41   -0.12    0.00    0.00      -2.58    1.43   -0.43
#  15   -2.66   -2.35    1.99    0.39   -0.19    0.00    0.00      -2.82    0.98   -0.47
#  16   -3.66   -3.31    3.14    0.50   -0.23    0.00    0.00      -3.55    1.03   -0.47
#  17   -3.56   -1.82    0.32    0.85   -0.22    0.00    0.00      -4.43    1.81   -0.47
#  18   -2.24   -1.01    0.07    1.03   -0.16    0.00    0.00      -2.30    2.84   -0.45
#  19   -1.29   -0.76    0.08    0.60   -0.10    0.00    0.00      -1.47    2.35   -0.39
#  20   -0.54   -0.43    0.09    0.07   -0.03    0.00    0.00      -0.84    0.37   -0.13
#  21   -0.65   -0.88    0.50    0.33   -0.04    0.00    0.00      -0.75    1.24   -0.17
#  22   -0.57   -0.71    0.05    0.11   -0.08    0.00    0.00      -1.20    0.43   -0.31
#  23   -1.37   -1.68    0.45    0.54   -0.15    0.00    0.00      -2.22    1.64   -0.45
#  24   -1.01   -1.65    0.39    0.31   -0.15    0.00    0.00      -2.10    0.96   -0.46
#  25    0.22   -0.71    0.05   -0.13   -0.07    0.00    0.00      -0.64   -0.52   -0.30
#  26   -1.27   -0.89    0.15    1.47    0.16    0.00    0.00      -0.38    5.81    0.62
#  27    0.38   -0.48    0.05   -0.39   -0.03    0.00    0.00      -0.47   -1.64   -0.12
#  28   -1.77   -0.86    0.22    0.44   -0.06    0.00    0.00      -2.03    1.35   -0.18
#  29   -3.62   -1.59    1.16    1.04   -0.10    0.00    0.00      -3.11    2.48   -0.25
#  30   17.81   -2.23    0.64   -7.15   -0.09    0.00    0.00       8.98  -13.35   -0.16
#  31  -30.96   -2.33    0.90   12.90   -0.20    0.00    0.00     -19.69   26.92   -0.41
#  32  -25.33   -2.80    1.12   14.92   -0.25    0.00    0.00     -12.34   25.31   -0.43
#  33    0.06   -0.23    0.02   -0.01   -0.02    0.00    0.00      -0.19   -0.10   -0.12
#  34   -2.05   -0.60    0.23    1.33    0.04    0.00    0.00      -1.05    8.99    0.27
#  35    1.07   -0.54    0.10   -0.21   -0.05    0.00    0.00       0.38   -1.31   -0.30
#  36   -1.90   -0.51    0.09    0.88   -0.06    0.00    0.00      -1.50    5.63   -0.41
#  37    5.43   -0.64    0.40   -2.23   -0.02    0.00    0.00       2.95  -17.51   -0.16
#  38   -3.03   -0.20    0.01    2.19   -0.02    0.00    0.00      -1.05   25.52   -0.29
#  39  -10.64   -2.18    6.32    4.63   -0.09    0.00    0.00      -1.96   30.38   -0.59
#  40    0.22   -0.01    0.00    0.04    0.00    0.00    0.00       0.24    2.82   -0.28
#  41    0.30   -0.02    0.00    0.04   -0.01    0.00    0.00       0.32    1.65   -0.28
#  42    0.52   -0.04    0.00    0.02   -0.01    0.00    0.00       0.50    0.56   -0.28
#  43    0.14   -0.03    0.00    0.04   -0.01    0.00    0.00       0.14    1.50   -0.28
#  44    0.08   -0.02    0.00    0.00   -0.01    0.00    0.00       0.06    0.18   -0.28
#  45    0.09   -0.01    0.00    0.00    0.00    0.00    0.00       0.07   -0.01   -0.28
#  46    0.08   -0.02    0.00   -0.01    0.00    0.00    0.00       0.05   -0.36   -0.28
#  47    0.11   -0.01    0.00    0.00    0.00    0.00    0.00       0.09   -0.13   -0.28
#  48    2.53    0.00    0.00   -0.23    0.02    0.00    0.00       2.32   -5.53    0.57
#  49    0.72   -0.72    2.15   -0.27   -0.05    0.00    0.00       1.83   -1.23   -0.25
#  50    0.95   -0.09    0.00   -0.09   -0.02    0.00    0.00       0.75   -1.00   -0.28
#  51    0.57   -0.13    0.01   -0.13   -0.04    0.00    0.00       0.28   -1.01   -0.28
#  52    2.26   -0.70    0.62   -0.47   -0.12    0.00    0.00       1.59   -1.12   -0.28
#  53    3.27   -1.50    3.34   -0.65   -0.16    0.00    0.00       4.30   -1.13   -0.28
#  54    3.60   -0.49    0.12   -0.85   -0.13    0.00    0.00       2.25   -1.77   -0.28
#  55    3.08   -0.17    0.01   -0.25   -0.04    0.00    0.00       2.62   -1.58   -0.27
#  56    2.05   -0.09    0.01   -0.05   -0.02    0.00    0.00       1.90   -0.54   -0.22
#  57    1.00   -0.81    2.07   -0.30   -0.06    0.00    0.00       1.90   -0.94   -0.20
#  58    0.34   -0.25    0.10   -0.32   -0.05    0.00    0.00      -0.18   -1.71   -0.27
#  59    0.80   -0.74    0.41   -0.94   -0.11    0.00    0.00      -0.58   -2.44   -0.28
#  60    0.31   -0.78    0.53   -0.90   -0.10    0.00    0.00      -0.94   -2.40   -0.28
#  61    0.16   -0.18    0.03   -0.35   -0.05    0.00    0.00      -0.39   -2.03   -0.28
#  62    2.10   -0.53    0.73   -0.54   -0.08    0.00    0.00       1.68   -1.82   -0.28
#  63    2.14   -0.37    0.23   -0.14   -0.07    0.00    0.00       1.79   -0.56   -0.28
#  64    1.08   -0.47    0.44   -0.49   -0.07    0.00    0.00       0.49   -1.81   -0.27
#  65    0.45   -1.53    4.83   -0.98   -0.11    0.00    0.00       2.65   -2.39   -0.28
#  66    0.18   -0.06    0.00   -0.08   -0.02    0.00    0.00       0.02   -1.16   -0.28
#  67    0.26   -0.03    0.00   -0.08   -0.01    0.00    0.00       0.13   -2.94   -0.28

@<TRIPOS>MOLECULE
       AVX38748_0       100
   67    70     0     0     0



@<TRIPOS>ATOM
      1 N1         13.5171   -17.3556    12.8939 N.4        1          -0.6384
      2 H1         12.7573   -17.0297    12.3153 H          1           0.4319
      3 H2         13.1497   -17.7045    13.7664 H          1           0.4353
      4 H3         14.0098   -18.0955    12.4166 H          1           0.4399
      5 C1         14.4407   -16.2449    13.1607 C.3        1          -0.0079
      6 C2         14.9979   -15.7158    11.8377 C.3        1          -0.1558
      7 C3         15.9598   -14.5589    12.1157 C.3        1          -0.0978
      8 C4         17.1118   -15.0531    12.9930 C.3        1          -0.1462
      9 C5         17.8479   -16.1581    12.2802 C.2        1           0.5196
     10 O1         18.7827   -15.8941    11.5540 O.2        1          -0.5495
     11 N2         17.4674   -17.4399    12.4497 N.am       1          -0.7065
     12 C6         18.1830   -18.5141    11.7568 C.3        1           0.1476
     13 C7         18.0317   -18.3764    10.2269 C.3        1          -0.0870
     14 C8         17.9626   -19.7961     9.7064 C.ar       1          -0.1072
     15 C9         18.1418   -20.2922     8.4258 C.ar       1          -0.1131
     16 C10        18.0289   -21.6470     8.1831 C.ar       1          -0.1297
     17 C11        17.7358   -22.5117     9.2212 C.ar       1          -0.1232
     18 C12        17.5567   -22.0191    10.4989 C.ar       1          -0.0885
     19 C13        17.6696   -20.6607    10.7442 C.ar       1          -0.0608
     20 C14        17.5217   -19.8811    12.0333 C.3        1          -0.0350
     21 C15        18.2450   -20.5997    13.1741 C.3        1          -0.0618
     22 C16        17.3603   -21.6897    13.7220 C.ar       1          -0.0461
     23 C17        17.7844   -22.9997    13.6961 C.ar       1          -0.1337
     24 C18        16.9776   -24.0074    14.1985 C.ar       1          -0.1210
     25 C19        15.7348   -23.7092    14.7334 C.ar       1           0.0231
     26 O2         14.9560   -24.7109    15.2267 O.3        1          -0.3059
     27 C20        13.5659   -24.4180    15.4002 C.3        1           0.0551
     28 C21        12.8805   -24.3233    14.0356 C.3        1          -0.0854
     29 C22        13.4271   -25.4151    13.1135 C.3        1          -0.1738
     30 C23        12.7520   -25.3217    11.7695 C.2        1           0.4896
     31 O3         12.8487   -24.3020    11.1081 O.co2      1          -0.6933
     32 O4         12.1089   -26.2659    11.3434 O.co2      1          -0.7153
     33 C24        13.4678   -23.0712    16.1267 C.3        1           0.0169
     34 O5         14.0748   -22.0859    15.2848 O.3        1          -0.2600
     35 C25        15.2912   -22.3922    14.7662 C.ar       1           0.0828
     36 C26        16.1096   -21.3709    14.2626 C.ar       1          -0.1357
     37 C27        15.6536   -19.9720    14.2980 C.2        1           0.5222
     38 O6         15.9075   -19.2701    15.2672 O.co2      1          -0.6804
     39 O7         15.0208   -19.5110    13.3579 O.co2      1          -0.6662
     40 H4         13.9084   -15.4456    13.6764 H          1           0.1315
     41 H5         15.2613   -16.5971    13.7858 H          1           0.1363
     42 H6         15.5302   -16.5151    11.3221 H          1           0.0936
     43 H7         14.1773   -15.3638    11.2126 H          1           0.0859
     44 H8         16.3568   -14.1820    11.1730 H          1           0.0780
     45 H9         15.4275   -13.7596    12.6313 H          1           0.0841
     46 H10        17.7971   -14.2288    13.1909 H          1           0.0995
     47 H11        16.7149   -15.4299    13.9356 H          1           0.0921
     48 H12        16.7197   -17.6511    13.0303 H          1           0.4035
     49 H13        19.2339   -18.5266    12.0457 H          1           0.1014
     50 H14        17.1146   -17.8396     9.9844 H          1           0.0773
     51 H15        18.8951   -17.8610     9.8063 H          1           0.0726
     52 H16        18.3704   -19.6172     7.6142 H          1           0.1121
     53 H17        18.1689   -22.0306     7.1833 H          1           0.1168
     54 H18        17.6467   -23.5715     9.0331 H          1           0.1198
     55 H19        17.3278   -22.6951    11.3093 H          1           0.1312
     56 H20        16.4674   -19.7490    12.2766 H          1           0.1088
     57 H21        19.1705   -21.0367    12.7994 H          1           0.1174
     58 H22        18.4745   -19.8861    13.9655 H          1           0.0457
     59 H23        18.7515   -23.2428    13.2814 H          1           0.1144
     60 H24        17.3191   -25.0316    14.1728 H          1           0.1176
     61 H25        13.0948   -25.1987    15.9973 H          1           0.0697
     62 H26        11.8057   -24.4562    14.1588 H          1           0.0824
     63 H27        13.0777   -23.3450    13.5971 H          1           0.0737
     64 H28        14.5019   -25.2821    12.9902 H          1           0.0620
     65 H29        13.2300   -26.3932    13.5521 H          1           0.0486
     66 H30        12.4214   -22.8182    16.2978 H          1           0.0700
     67 H31        13.9987   -23.1238    17.0772 H          1           0.1150
@<TRIPOS>BOND
     1    1    2 1
     2    1    3 1
     3    1    4 1
     4    1    5 1
     5    5    6 1
     6    5   40 1
     7    5   41 1
     8    6    7 1
     9    6   42 1
    10    6   43 1
    11    7    8 1
    12    7   44 1
    13    7   45 1
    14    8    9 1
    15    8   46 1
    16    8   47 1
    17    9   10 2
    18    9   11 am
    19   11   12 1
    20   11   48 1
    21   12   20 1
    22   12   13 1
    23   12   49 1
    24   13   14 1
    25   13   50 1
    26   13   51 1
    27   14   19 ar
    28   14   15 ar
    29   15   16 ar
    30   15   52 1
    31   16   17 ar
    32   16   53 1
    33   17   18 ar
    34   17   54 1
    35   18   19 ar
    36   18   55 1
    37   19   20 1
    38   20   21 1
    39   20   56 1
    40   21   22 1
    41   21   57 1
    42   21   58 1
    43   22   36 ar
    44   22   23 ar
    45   23   24 ar
    46   23   59 1
    47   24   25 ar
    48   24   60 1
    49   25   35 ar
    50   25   26 1
    51   26   27 1
    52   27   28 1
    53   27   33 1
    54   27   61 1
    55   28   29 1
    56   28   62 1
    57   28   63 1
    58   29   30 1
    59   29   64 1
    60   29   65 1
    61   30   31 1
    62   30   32 2
    63   33   34 1
    64   33   66 1
    65   33   67 1
    66   34   35 1
    67   35   36 ar
    68   36   37 1
    69   37   38 1
    70   37   39 2
