AVX38779_0, 3
##########                 Name:           AVX38779_0
##########          Protonation:                   61
##########               SMILES:   @@H](C)NC(=O)c1ccccc1C[NH+](CC=C)Cc2ccc3c(c2C(=O)[O-])OC[C@H](O3)CCC(=O)[O-]
##########            Long Name:   ]methyl]-2-(3-oxido-3-oxo-propyl)-2,3-dihydro-1,4-benzodioxine-5-carboxylate
##########          FlexRecCode: 1
##########               Number:                  562
##########   Ligand Source File: /raid1/people/rgc/Examples/sampl4/screening/ligands/build_1//sampl4-hivint-00000
##########           GlobalRank: 68
##########                 Rank:                    1
##########               Setnum:                  117
##########             Matchnum:                 4765
##########                Cloud:                    1
##########        Electrostatic:           -36.214260
##########        Van der Waals:           -20.682138
##########  Ligand Polar Desolv:            21.326267
########## Ligand Apolar Desolv:            -3.090505
##########      Internal Energy:             0.000000
##########      Receptor Energy: 0.0
########## Receptor Desolvation:             0.000000
########## Receptor Hydrophobic:             0.000000
##########         Total Energy: -38.66
##########        Ligand Charge:            -1.000000
##########            Arbitrary:    +999.9990
##########     heavy atom count:   37
##########           pose count:    1
##########        Ligand Energy:             0.000000
# num electro vdwattr vdwrepu polsolv apolsol rdesolv rhydroe totalscore fullpol fullapo
#   1   -0.12   -0.03    0.00    0.01    0.00    0.00    0.00      -0.14    0.41   -0.20
#   2   -0.12   -0.09    0.00    0.03   -0.01    0.00    0.00      -0.19    0.51   -0.24
#   3    0.12   -0.13    0.00   -0.08   -0.02    0.00    0.00      -0.11   -1.08   -0.25
#   4   -0.14   -0.43    0.05    0.33   -0.04    0.00    0.00      -0.23    1.68   -0.19
#   5   -0.61   -0.14    0.00    0.28    0.09    0.00    0.00      -0.38    5.40    1.82
#   6    0.48   -0.15    0.01   -0.27   -0.04    0.00    0.00       0.02   -4.35   -0.63
#   7   -0.36   -0.22    0.01    0.34    0.02    0.00    0.00      -0.21    3.92    0.23
#   8   -0.09   -0.10    0.00    0.04   -0.01    0.00    0.00      -0.16    0.87   -0.30
#   9   -0.08   -0.05    0.00    0.02   -0.01    0.00    0.00      -0.12    0.99   -0.44
#  10   -0.15   -0.06    0.00    0.03   -0.01    0.00    0.00      -0.20    0.99   -0.47
#  11   -0.21   -0.25    0.04    0.04   -0.04    0.00    0.00      -0.41    0.47   -0.47
#  12   -0.30   -0.39    0.11    0.00   -0.04    0.00    0.00      -0.61    0.04   -0.39
#  13   -0.18   -0.19    0.01    0.01   -0.02    0.00    0.00      -0.37    0.16   -0.23
#  14    0.22   -0.27    0.02    0.02   -0.04    0.00    0.00      -0.05    0.15   -0.28
#  15   -3.10   -0.44    0.02   -0.03    0.01    0.00    0.00      -3.53   -0.15    0.07
#  16    6.97   -0.01    0.00   -0.26    0.03    0.00    0.00       6.73   -2.49    0.29
#  17    0.10   -0.36    0.03    0.02   -0.07    0.00    0.00      -0.29    0.09   -0.37
#  18   -2.04   -1.07    0.23   -0.03   -0.10    0.00    0.00      -3.01   -0.11   -0.35
#  19   -1.97   -1.37    0.60    0.19   -0.10    0.00    0.00      -2.65    0.66   -0.34
#  20    0.33   -0.89    0.18    0.00   -0.08    0.00    0.00      -0.47    0.00   -0.28
#  21   -1.71   -1.29    0.18    0.12   -0.10    0.00    0.00      -2.81    0.36   -0.31
#  22   -1.09   -2.43    1.06   -0.03   -0.14    0.00    0.00      -2.63   -0.09   -0.40
#  23   -1.09   -2.66    1.13    0.39   -0.18    0.00    0.00      -2.40    1.03   -0.46
#  24    1.06   -1.49    0.27    0.05   -0.11    0.00    0.00      -0.21    0.15   -0.30
#  25   -4.63   -1.27    0.21    2.71    0.25    0.00    0.00      -2.74    6.81    0.62
#  26    1.19   -0.95    0.15   -0.75   -0.05    0.00    0.00      -0.41   -1.74   -0.12
#  27   -2.24   -0.75    0.14    0.45   -0.05    0.00    0.00      -2.46    1.48   -0.18
#  28   -2.72   -0.49    0.06    0.92   -0.06    0.00    0.00      -2.30    3.64   -0.25
#  29    6.01   -0.47    0.02   -2.88   -0.03    0.00    0.00       2.64  -15.82   -0.16
#  30   -9.42   -0.31    0.01    4.01   -0.06    0.00    0.00      -5.77   28.85   -0.41
#  31   -5.07   -0.46    0.02    5.83   -0.08    0.00    0.00       0.23   30.70   -0.43
#  32    0.60   -1.68    0.48   -0.24   -0.06    0.00    0.00      -0.91   -0.49   -0.12
#  33  -10.32   -1.78    0.72    3.46    0.11    0.00    0.00      -7.82    8.21    0.27
#  34    2.34   -1.15    0.11   -0.07   -0.11    0.00    0.00       1.13   -0.18   -0.30
#  35   -2.98   -1.04    0.08    1.16   -0.14    0.00    0.00      -2.92    3.38   -0.40
#  36   17.01   -1.48    0.37   -4.27   -0.06    0.00    0.00      11.57  -11.44   -0.15
#  37  -21.79   -2.52    1.31    5.20   -0.10    0.00    0.00     -17.90   11.30   -0.22
#  38  -25.24   -1.39    0.31    8.96   -0.22    0.00    0.00     -17.57   24.32   -0.59
#  39    0.04   -0.01    0.00    0.00    0.00    0.00    0.00       0.03   -0.16   -0.28
#  40    0.04    0.00    0.00    0.00    0.00    0.00    0.00       0.03   -0.16   -0.26
#  41    0.05   -0.01    0.00    0.00    0.00    0.00    0.00       0.04   -0.16   -0.28
#  42    0.08   -0.04    0.00   -0.01   -0.01    0.00    0.00       0.02   -0.32   -0.28
#  43    0.07   -0.03    0.00   -0.01   -0.01    0.00    0.00       0.03   -0.31   -0.28
#  44    0.06   -0.03    0.00   -0.02   -0.01    0.00    0.00       0.01   -0.60   -0.26
#  45    0.04   -0.29    0.14    0.00   -0.05    0.00    0.00      -0.16   -0.01   -0.28
#  46    0.07   -0.16    0.02   -0.11   -0.04    0.00    0.00      -0.22   -0.77   -0.28
#  47    0.05   -0.11    0.01   -0.04   -0.03    0.00    0.00      -0.13   -0.41   -0.28
#  48    0.39    0.00    0.00   -0.05    0.01    0.00    0.00       0.35   -2.76    0.45
#  49    0.12    0.00    0.00   -0.01    0.00    0.00    0.00       0.10   -0.95   -0.22
#  50    0.17   -0.01    0.00   -0.01    0.00    0.00    0.00       0.15   -0.81   -0.28
#  51    0.32   -0.09    0.02   -0.02   -0.02    0.00    0.00       0.21   -0.26   -0.28
#  52    0.80   -0.28    0.34    0.12   -0.04    0.00    0.00       0.95    0.85   -0.28
#  53    0.74   -0.10    0.01    0.19   -0.02    0.00    0.00       0.81    2.08   -0.27
#  54    0.34   -0.10    0.01    0.04   -0.01    0.00    0.00       0.27    0.40   -0.15
#  55   -0.10   -0.17    0.02    0.04   -0.03    0.00    0.00      -0.23    0.27   -0.20
#  56    0.34   -0.05    0.00    0.09   -0.01    0.00    0.00       0.37    2.22   -0.28
#  57    1.34   -0.48    0.27    0.05   -0.07    0.00    0.00       1.11    0.16   -0.22
#  58    2.91   -0.71    1.18   -0.13   -0.09    0.00    0.00       3.15   -0.38   -0.28
#  59    0.55   -0.20    0.06   -0.06   -0.05    0.00    0.00       0.30   -0.35   -0.27
#  60    0.27   -0.41    0.12   -0.09   -0.04    0.00    0.00      -0.15   -0.33   -0.14
#  61    0.58   -0.55    0.51    0.43   -0.07    0.00    0.00       0.90    1.59   -0.27
#  62    0.98   -1.01    2.38    0.28   -0.10    0.00    0.00       2.53    0.81   -0.28
#  63    0.37   -1.31    2.64   -0.62   -0.13    0.00    0.00       0.95   -1.39   -0.28
#  64    1.62   -0.42    0.19   -0.61   -0.10    0.00    0.00       0.68   -1.80   -0.28
#  65    2.84   -0.55    0.56   -0.53   -0.07    0.00    0.00       2.24   -2.07   -0.28
#  66    2.30   -0.16    0.02   -0.15   -0.04    0.00    0.00       1.97   -1.19   -0.28
#  67    0.79   -0.25    0.17   -0.35   -0.04    0.00    0.00       0.31   -2.23   -0.27
#  68    0.66   -0.17    0.01   -0.49   -0.06    0.00    0.00      -0.04   -2.42   -0.28
#  69    3.09   -1.37    2.34   -0.76   -0.15    0.00    0.00       3.16   -1.44   -0.28
#  70    3.24   -0.64    0.31   -1.51   -0.15    0.00    0.00       1.24   -2.82   -0.28

@<TRIPOS>MOLECULE
       AVX38779_0        61
   70    72     0     0     0



@<TRIPOS>ATOM
      1 C1         15.3083   -24.2043    22.2432 C.3        1          -0.1521
      2 C2         16.0959   -25.1246    21.3084 C.3        1          -0.1344
      3 C3         16.8303   -24.2824    20.2634 C.3        1           0.1437
      4 C4         17.6179   -25.2027    19.3287 C.3        1          -0.1655
      5 N1         15.8569   -23.5126    19.4846 N.am       1          -0.7094
      6 C5         16.2024   -22.3173    18.9666 C.2        1           0.5743
      7 O1         17.3216   -21.8780    19.1455 O.2        1          -0.5618
      8 C6         15.2201   -21.5404    18.1809 C.ar       1          -0.0767
      9 C7         14.3827   -20.6221    18.8167 C.ar       1          -0.0703
     10 C8         13.4688   -19.9002    18.0776 C.ar       1          -0.1008
     11 C9         13.3806   -20.0851    16.7091 C.ar       1          -0.0902
     12 C10        14.2072   -20.9936    16.0730 C.ar       1          -0.0995
     13 C11        15.1298   -21.7180    16.7995 C.ar       1          -0.0576
     14 C12        16.0338   -22.7030    16.1041 C.3        1           0.0442
     15 N2         15.2484   -23.5019    15.1540 N.4        1          -0.3540
     16 H1         14.8262   -22.8919    14.4700 H          1           0.4383
     17 C13        14.1964   -24.2287    15.8775 C.3        1           0.0230
     18 C14        13.1147   -24.6394    14.9119 C.2        1          -0.1877
     19 C15        12.1017   -23.8404    14.6848 C.2        1          -0.1345
     20 C16        16.1293   -24.4622    14.4760 C.3        1           0.0472
     21 C17        16.8778   -23.7635    13.3704 C.ar       1          -0.1300
     22 C18        18.1000   -23.1824    13.6259 C.ar       1          -0.1184
     23 C19        18.7949   -22.5390    12.6148 C.ar       1          -0.1212
     24 C20        18.2690   -22.4730    11.3349 C.ar       1           0.0629
     25 O2         18.9667   -21.8405    10.3519 O.3        1          -0.2958
     26 C21        18.2319   -21.4640     9.1828 C.3        1           0.0501
     27 C22        17.2982   -20.2968     9.5095 C.3        1          -0.0835
     28 C23        18.1240   -19.1031     9.9935 C.3        1          -0.1801
     29 C24        17.2043   -17.9535    10.3152 C.2        1           0.4905
     30 O3         16.3437   -18.0820    11.1692 O.co2      1          -0.6991
     31 O4         17.3207   -16.8951     9.7214 O.co2      1          -0.7065
     32 C25        17.4095   -22.6820     8.7455 C.3        1           0.0178
     33 O5         16.5073   -22.9943     9.8117 O.3        1          -0.2584
     34 C26        17.0360   -23.0536    11.0606 C.ar       1           0.0870
     35 C27        16.3343   -23.7096    12.0822 C.ar       1          -0.1234
     36 C28        15.0312   -24.3337    11.8021 C.2        1           0.5218
     37 O6         14.9770   -25.5017    11.4419 O.co2      1          -0.6916
     38 O7         14.0020   -23.6846    11.9294 O.co2      1          -0.6354
     39 H2         14.7850   -24.8042    22.9877 H          1           0.0546
     40 H3         15.9946   -23.5213    22.7438 H          1           0.0541
     41 H4         14.5841   -23.6315    21.6638 H          1           0.0564
     42 H5         16.8200   -25.6973    21.8877 H          1           0.0800
     43 H6         15.4094   -25.8074    20.8077 H          1           0.0695
     44 H7         17.5166   -23.5995    20.7642 H          1           0.0898
     45 H8         18.1411   -24.6027    18.5842 H          1           0.0637
     46 H9         18.3421   -25.7753    19.9080 H          1           0.0644
     47 H10        16.9316   -25.8855    18.8279 H          1           0.0601
     48 H11        14.9639   -23.8633    19.3420 H          1           0.4010
     49 H12        14.4502   -20.4774    19.8848 H          1           0.1224
     50 H13        12.8204   -19.1894    18.5683 H          1           0.1277
     51 H14        12.6626   -19.5178    16.1352 H          1           0.1274
     52 H15        14.1330   -21.1335    15.0045 H          1           0.1273
     53 H16        16.8142   -22.1637    15.5673 H          1           0.1132
     54 H17        16.4899   -23.3619    16.8430 H          1           0.1442
     55 H18        14.6233   -25.1166    16.3439 H          1           0.1241
     56 H19        13.7715   -23.5830    16.6460 H          1           0.1203
     57 H20        13.1748   -25.5922    14.4072 H          1           0.1307
     58 H21        11.3265   -24.1348    13.9928 H          1           0.1112
     59 H22        12.0416   -22.8876    15.1896 H          1           0.1029
     60 H23        16.8402   -24.8723    15.1933 H          1           0.1682
     61 H24        15.5307   -25.2702    14.0553 H          1           0.1022
     62 H25        18.5189   -23.2282    14.6203 H          1           0.1269
     63 H26        19.7523   -22.0859    12.8258 H          1           0.1354
     64 H27        18.9213   -21.1754     8.3894 H          1           0.0807
     65 H28        16.7420   -20.0153     8.6153 H          1           0.0864
     66 H29        16.6009   -20.5972    10.2915 H          1           0.0744
     67 H30        18.6801   -19.3848    10.8876 H          1           0.0635
     68 H31        18.8212   -18.8028     9.2114 H          1           0.0555
     69 H32        16.8473   -22.4442     7.8425 H          1           0.0756
     70 H33        18.0710   -23.5283     8.5605 H          1           0.1230
@<TRIPOS>BOND
     1    1    2 1
     2    1   39 1
     3    1   40 1
     4    1   41 1
     5    2    3 1
     6    2   42 1
     7    2   43 1
     8    3    4 1
     9    3    5 1
    10    3   44 1
    11    4   45 1
    12    4   46 1
    13    4   47 1
    14    5    6 am
    15    5   48 1
    16    6    7 2
    17    6    8 1
    18    8   13 ar
    19    8    9 ar
    20    9   10 ar
    21    9   49 1
    22   10   11 ar
    23   10   50 1
    24   11   12 ar
    25   11   51 1
    26   12   13 ar
    27   12   52 1
    28   13   14 1
    29   14   15 1
    30   14   53 1
    31   14   54 1
    32   15   16 1
    33   15   17 1
    34   15   20 1
    35   17   18 1
    36   17   55 1
    37   17   56 1
    38   18   19 2
    39   18   57 1
    40   19   58 1
    41   19   59 1
    42   20   21 1
    43   20   60 1
    44   20   61 1
    45   21   35 ar
    46   21   22 ar
    47   22   23 ar
    48   22   62 1
    49   23   24 ar
    50   23   63 1
    51   24   34 ar
    52   24   25 1
    53   25   26 1
    54   26   27 1
    55   26   32 1
    56   26   64 1
    57   27   28 1
    58   27   65 1
    59   27   66 1
    60   28   29 1
    61   28   67 1
    62   28   68 1
    63   29   30 1
    64   29   31 2
    65   32   33 1
    66   32   69 1
    67   32   70 1
    68   33   34 1
    69   34   35 ar
    70   35   36 1
    71   36   37 1
    72   36   38 2
