AVX38673_1, 3
##########                 Name:           AVX38673_0
##########          Protonation:                  100
##########               SMILES:   CCCCNC(=O)[C@@H](c1ccccc1)NC(=O)N(C)Cc2ccc3c(c2C(=O)[O-])OCO3
##########            Long Name:   1-phenyl-ethyl]carbamoyl-methyl-amino]methyl]-1,3-benzodioxole-4-carboxylate
##########          FlexRecCode: 1
##########               Number:                  413
##########   Ligand Source File: /raid1/people/rgc/Examples/sampl4/screening/ligands/build_1//sampl4-hivint-00000
##########           GlobalRank: 1
##########                 Rank:                    1
##########               Setnum:                   96
##########             Matchnum:                 5616
##########                Cloud:                    1
##########        Electrostatic:           -60.411404
##########        Van der Waals:           -22.550552
##########  Ligand Polar Desolv:            28.105555
########## Ligand Apolar Desolv:            -3.039202
##########      Internal Energy:             0.000000
##########      Receptor Energy: 0.0
########## Receptor Desolvation:             0.000000
########## Receptor Hydrophobic:             0.000000
##########         Total Energy: -57.9
##########        Ligand Charge:            -1.000000
##########            Arbitrary:    +999.9990
##########     heavy atom count:   32
##########           pose count:    1
##########        Ligand Energy:             0.000000
# num electro vdwattr vdwrepu polsolv apolsol rdesolv rhydroe totalscore fullpol fullapo
#   1   -0.38   -0.36    0.07    0.06   -0.03    0.00    0.00      -0.64    0.35   -0.19
#   2   -0.41   -0.26    0.02    0.05   -0.04    0.00    0.00      -0.65    0.33   -0.25
#   3   -2.01   -0.59    0.19    0.06   -0.05    0.00    0.00      -2.39    0.29   -0.22
#   4    1.77   -0.49    0.03   -0.16   -0.10    0.00    0.00       1.05   -0.64   -0.42
#   5  -18.65   -1.27    0.25    1.26    0.65    0.00    0.00     -17.76    4.41    2.28
#   6   11.34   -0.70    0.05   -1.20   -0.14    0.00    0.00       9.35   -5.21   -0.60
#   7   -7.32   -0.41    0.02    1.28    0.07    0.00    0.00      -6.36    7.41    0.38
#   8    4.81   -0.64    0.07   -0.65   -0.08    0.00    0.00       3.50   -2.09   -0.25
#   9  -16.64   -0.81    0.05    2.58    0.51    0.00    0.00     -14.31    8.57    1.69
#  10   20.37   -1.04    0.09   -4.14   -0.69    0.00    0.00      14.59  -12.30   -2.05
#  11  -23.77   -1.96    0.87    6.44    0.15    0.00    0.00     -18.27   15.56    0.37
#  12  -13.36   -1.13    0.10    3.60    0.42    0.00    0.00     -10.37   10.27    1.21
#  13    0.93   -0.96    0.16   -0.18   -0.16    0.00    0.00      -0.22   -0.55   -0.48
#  14    4.15   -1.12    0.22   -2.15   -0.12    0.00    0.00       0.97   -5.36   -0.31
#  15   -0.90   -1.70    0.85    0.47   -0.14    0.00    0.00      -1.43    1.34   -0.41
#  16   -0.54   -3.01    4.06    0.44   -0.14    0.00    0.00       0.82    1.35   -0.42
#  17   -0.08   -1.93    1.18    0.13   -0.12    0.00    0.00      -0.82    0.50   -0.47
#  18   -0.03   -1.14    0.28   -0.06   -0.09    0.00    0.00      -1.05   -0.23   -0.33
#  19   -2.03   -0.80    0.30    1.11    0.12    0.00    0.00      -1.29    4.79    0.52
#  20    1.20   -1.08    1.05   -0.78    0.01    0.00    0.00       0.38   -2.93    0.02
#  21   -7.33   -2.74    3.06    3.36    0.12    0.00    0.00      -3.53    9.34    0.34
#  22    1.81   -1.43    0.42   -0.26   -0.11    0.00    0.00       0.42   -0.76   -0.32
#  23   -3.41   -1.30    0.23    2.44   -0.15    0.00    0.00      -2.20    6.51   -0.41
#  24   22.93   -2.24    1.04   -7.71   -0.07    0.00    0.00      13.95  -18.45   -0.17
#  25  -34.49   -3.53    4.21   10.35   -0.12    0.00    0.00     -23.58   28.15   -0.32
#  26  -33.77   -4.16    6.12   16.25   -0.29    0.00    0.00     -15.85   31.73   -0.56
#  27   -1.60   -1.23    0.21    0.45   -0.12    0.00    0.00      -2.29    1.21   -0.33
#  28   -1.14   -1.97    0.67    0.49   -0.19    0.00    0.00      -2.14    1.13   -0.44
#  29   -0.82   -2.30    0.86    0.47   -0.23    0.00    0.00      -2.02    0.94   -0.47
#  30   -0.82   -1.74    0.48    0.40   -0.23    0.00    0.00      -1.90    0.82   -0.47
#  31   -1.02   -1.68    0.36    0.38   -0.19    0.00    0.00      -2.16    0.91   -0.47
#  32   -1.28   -1.36    0.22    0.40   -0.17    0.00    0.00      -2.18    1.07   -0.45
#  33    0.10   -0.04    0.00   -0.01   -0.01    0.00    0.00       0.04   -0.14   -0.28
#  34    0.15   -0.25    0.10   -0.03   -0.06    0.00    0.00      -0.09   -0.13   -0.28
#  35    0.15   -0.11    0.03   -0.01   -0.03    0.00    0.00       0.03   -0.14   -0.28
#  36    0.21   -0.09    0.00   -0.01   -0.02    0.00    0.00       0.09   -0.18   -0.28
#  37    0.12   -0.03    0.00   -0.01   -0.01    0.00    0.00       0.08   -0.20   -0.28
#  38    0.90   -0.19    0.13   -0.03   -0.04    0.00    0.00       0.78   -0.20   -0.28
#  39    1.90   -0.40    0.24   -0.04   -0.07    0.00    0.00       1.63   -0.17   -0.28
#  40    0.77   -0.23    0.02   -0.08   -0.06    0.00    0.00       0.43   -0.36   -0.28
#  41    0.62   -0.07    0.00   -0.02   -0.01    0.00    0.00       0.52   -0.35   -0.28
#  42   14.43   -0.05    0.00   -0.50    0.16    0.00    0.00      14.04   -1.78    0.55
#  43    4.43   -0.37    0.13   -0.32   -0.07    0.00    0.00       3.80   -1.28   -0.26
#  44    6.61   -0.01    0.00   -0.68    0.06    0.00    0.00       5.97   -4.23    0.37
#  45    0.47   -0.40    0.10   -0.22   -0.08    0.00    0.00      -0.12   -0.76   -0.28
#  46    0.65   -0.53    0.16   -0.31   -0.10    0.00    0.00      -0.13   -0.88   -0.28
#  47    0.79   -0.13    0.01   -0.11   -0.03    0.00    0.00       0.53   -0.85   -0.23
#  48    3.53   -0.44    0.21   -0.67   -0.09    0.00    0.00       2.54   -2.02   -0.26
#  49    1.50   -0.65    0.31   -0.26   -0.09    0.00    0.00       0.82   -0.62   -0.21
#  50   -0.09   -0.85    1.31   -0.89   -0.07    0.00    0.00      -0.59   -2.51   -0.21
#  51   -0.53   -0.31    0.13   -0.42   -0.05    0.00    0.00      -1.18   -2.19   -0.28
#  52    0.47   -0.55    1.16   -0.57   -0.07    0.00    0.00       0.44   -2.32   -0.28
#  53    0.23   -0.17    0.04   -0.28   -0.05    0.00    0.00      -0.23   -1.70   -0.28
#  54    1.46   -0.48    0.17   -0.37   -0.10    0.00    0.00       0.68   -0.98   -0.26
#  55    0.32   -0.53    0.13   -0.40   -0.14    0.00    0.00      -0.63   -0.77   -0.28
#  56    0.60   -0.28    0.02   -0.24   -0.10    0.00    0.00       0.01   -0.69   -0.28
#  57    0.81   -0.53    0.25   -0.28   -0.10    0.00    0.00       0.15   -0.79   -0.28
#  58    1.44   -0.28    0.05   -0.28   -0.07    0.00    0.00       0.86   -1.06   -0.28

@<TRIPOS>MOLECULE
       AVX38673_0       100
   58    60     0     0     0



@<TRIPOS>ATOM
      1 C1         12.5209   -16.6866    12.4158 C.3        1          -0.1528
      2 C2         13.5582   -16.4872    11.3090 C.3        1          -0.1215
      3 C3         14.1873   -17.8351    10.9509 C.3        1          -0.1330
      4 C4         15.2247   -17.6358     9.8440 C.3        1           0.1189
      5 N1         15.8270   -18.9263     9.5011 N.am       1          -0.7238
      6 C5         16.9310   -19.3483    10.1490 C.2        1           0.5208
      7 O1         17.4256   -18.6595    11.0161 O.2        1          -0.5310
      8 C6         17.5506   -20.6758     9.7962 C.3        1           0.1894
      9 N2         17.5546   -21.5423    10.9775 N.am       1          -0.7311
     10 C7         16.9003   -22.7202    10.9513 C.2        1           0.7086
     11 O2         16.3068   -23.0639     9.9474 O.2        1          -0.5749
     12 N3         16.9038   -23.5174    12.0381 N.am       1          -0.6276
     13 C8         17.6190   -23.1034    13.2478 C.3        1           0.0757
     14 C9         16.1927   -24.7979    12.0097 C.3        1           0.1926
     15 C10        15.1325   -24.8075    13.0806 C.ar       1          -0.0515
     16 C11        15.4350   -25.2601    14.3455 C.ar       1          -0.1256
     17 C12        14.4664   -25.2718    15.3360 C.ar       1          -0.1015
     18 C13        13.1827   -24.8289    15.0661 C.ar       1          -0.0029
     19 O3         12.0711   -24.7417    15.8545 O.3        1          -0.3191
     20 C14        11.1813   -23.8443    15.1643 C.3        1           0.2047
     21 O4         11.5515   -23.9929    13.7808 O.3        1          -0.2766
     22 C15        12.8603   -24.3679    13.7922 C.ar       1           0.0781
     23 C16        13.8415   -24.3510    12.7917 C.ar       1          -0.1193
     24 C17        13.5145   -23.8609    11.4430 C.2        1           0.5223
     25 O5         13.6607   -22.6773    11.1702 O.co2      1          -0.6799
     26 O6         13.0966   -24.6371    10.5947 O.co2      1          -0.6710
     27 C18        18.9664   -20.4604     9.3266 C.ar       1          -0.0960
     28 C19        19.9178   -21.4432     9.5257 C.ar       1          -0.0944
     29 C20        21.2162   -21.2457     9.0950 C.ar       1          -0.1183
     30 C21        21.5633   -20.0654     8.4647 C.ar       1          -0.1151
     31 C22        20.6117   -19.0829     8.2647 C.ar       1          -0.1177
     32 C23        19.3122   -19.2822     8.6916 C.ar       1          -0.1021
     33 H1         12.0727   -15.7262    12.6710 H          1           0.0553
     34 H2         11.7451   -17.3686    12.0682 H          1           0.0544
     35 H3         13.0059   -17.1066    13.2970 H          1           0.0548
     36 H4         13.0732   -16.0670    10.4278 H          1           0.0649
     37 H5         14.3340   -15.8051    11.6566 H          1           0.0654
     38 H6         14.6722   -18.2553    11.8319 H          1           0.0705
     39 H7         13.4115   -18.5171    10.6030 H          1           0.0702
     40 H8         14.7398   -17.2155     8.9629 H          1           0.0685
     41 H9         16.0006   -16.9536    10.1917 H          1           0.0693
     42 H10        15.4315   -19.4772     8.8077 H          1           0.4033
     43 H11        16.9721   -21.1472     9.0017 H          1           0.1228
     44 H12        18.0280   -21.2682    11.7784 H          1           0.4040
     45 H13        17.5099   -23.8701    14.0147 H          1           0.0572
     46 H14        18.6757   -22.9682    13.0168 H          1           0.0794
     47 H15        17.2037   -22.1637    13.6118 H          1           0.0587
     48 H16        15.7251   -24.9323    11.0342 H          1           0.1039
     49 H17        16.8980   -25.6092    12.1894 H          1           0.1181
     50 H18        16.4331   -25.6084    14.5666 H          1           0.1253
     51 H19        14.7141   -25.6292    16.3246 H          1           0.1226
     52 H20        10.1436   -24.1410    15.3173 H          1           0.1231
     53 H21        11.3399   -22.8179    15.4952 H          1           0.0745
     54 H22        19.6466   -22.3654    10.0182 H          1           0.1184
     55 H23        21.9598   -22.0133     9.2512 H          1           0.1217
     56 H24        22.5780   -19.9107     8.1287 H          1           0.1209
     57 H25        20.8830   -18.1605     7.7725 H          1           0.1236
     58 H26        18.5678   -18.5161     8.5320 H          1           0.1246
@<TRIPOS>BOND
     1    1    2 1
     2    1   33 1
     3    1   34 1
     4    1   35 1
     5    2    3 1
     6    2   36 1
     7    2   37 1
     8    3    4 1
     9    3   38 1
    10    3   39 1
    11    4    5 1
    12    4   40 1
    13    4   41 1
    14    5    6 am
    15    5   42 1
    16    6    7 2
    17    6    8 1
    18    8    9 1
    19    8   27 1
    20    8   43 1
    21    9   10 am
    22    9   44 1
    23   10   11 2
    24   10   12 am
    25   12   13 1
    26   12   14 1
    27   13   45 1
    28   13   46 1
    29   13   47 1
    30   14   15 1
    31   14   48 1
    32   14   49 1
    33   15   23 ar
    34   15   16 ar
    35   16   17 ar
    36   16   50 1
    37   17   18 ar
    38   17   51 1
    39   18   22 ar
    40   18   19 1
    41   19   20 1
    42   20   21 1
    43   20   52 1
    44   20   53 1
    45   21   22 1
    46   22   23 ar
    47   23   24 1
    48   24   25 1
    49   24   26 2
    50   27   32 ar
    51   27   28 ar
    52   28   29 ar
    53   28   54 1
    54   29   30 ar
    55   29   55 1
    56   30   31 ar
    57   30   56 1
    58   31   32 ar
    59   31   57 1
    60   32   58 1
