AVX38749_0, 3
##########                 Name:           AVX38749_0
##########          Protonation:                  100
##########               SMILES:   c1)C[C@@H]([C@H]2Cc3ccc4c(c3C(=O)[O-])OC[C@H](O4)CCC(=O)[O-])NC(=O)CCC[NH3+]
##########            Long Name:   ]methyl]-2-(3-oxido-3-oxo-propyl)-2,3-dihydro-1,4-benzodioxine-5-carboxylate
##########          FlexRecCode: 1
##########               Number:                  159
##########   Ligand Source File: /raid1/people/rgc/Examples/sampl4/screening/ligands/build_1//sampl4-hivint-00000
##########           GlobalRank: 74
##########                 Rank:                    1
##########               Setnum:                    9
##########             Matchnum:                23094
##########                Cloud:                    1
##########        Electrostatic:           -49.018780
##########        Van der Waals:           -17.291130
##########  Ligand Polar Desolv:            31.381666
########## Ligand Apolar Desolv:            -2.431589
##########      Internal Energy:             0.000000
##########      Receptor Energy: 0.0
########## Receptor Desolvation:             0.000000
########## Receptor Hydrophobic:             0.000000
##########         Total Energy: -37.36
##########        Ligand Charge:            -1.000000
##########            Arbitrary:    +999.9990
##########     heavy atom count:   35
##########           pose count:    1
##########        Ligand Energy:             0.000000
# num electro vdwattr vdwrepu polsolv apolsol rdesolv rhydroe totalscore fullpol fullapo
#   1   -1.35   -0.14    0.01   -1.22    0.07    0.00    0.00      -2.63  -15.99    0.86
#   2    0.72    0.00    0.00    0.21    0.01    0.00    0.00       0.94   12.61    0.58
#   3    1.26   -0.01    0.00    0.99    0.04    0.00    0.00       2.29   13.89    0.60
#   4    0.83    0.00    0.00    0.34    0.02    0.00    0.00       1.19   11.76    0.58
#   5   -0.02   -0.14    0.00    0.06   -0.04    0.00    0.00      -0.13    0.76   -0.49
#   6   -0.18   -0.06    0.00   -0.05   -0.01    0.00    0.00      -0.30   -1.49   -0.20
#   7   -0.15   -0.03    0.00   -0.01   -0.01    0.00    0.00      -0.20   -0.54   -0.24
#   8    0.52   -0.08    0.00   -0.08   -0.02    0.00    0.00       0.34   -2.89   -0.66
#   9   -0.50   -0.08    0.00    0.23    0.01    0.00    0.00      -0.34    6.02    0.37
#  10   -0.90   -0.10    0.00    0.26    0.08    0.00    0.00      -0.67    7.00    2.05
#  11    0.18   -0.12    0.00   -0.15   -0.02    0.00    0.00      -0.11   -2.12   -0.30
#  12   -0.07   -0.11    0.00    0.02   -0.02    0.00    0.00      -0.16    0.42   -0.27
#  13   -0.11   -0.33    0.02    0.08   -0.06    0.00    0.00      -0.40    0.63   -0.43
#  14   -0.09   -0.41    0.02    0.06   -0.07    0.00    0.00      -0.49    0.41   -0.47
#  15   -0.20   -0.72    0.08    0.14   -0.12    0.00    0.00      -0.82    0.57   -0.47
#  16   -0.40   -1.18    0.41    0.39   -0.13    0.00    0.00      -0.91    1.43   -0.47
#  17   -0.40   -1.23    0.76    0.52   -0.10    0.00    0.00      -0.45    2.06   -0.40
#  18   -0.24   -0.55    0.07    0.28   -0.06    0.00    0.00      -0.50    1.57   -0.35
#  19   -0.27   -0.21    0.01    0.10   -0.02    0.00    0.00      -0.38    0.85   -0.15
#  20   -0.46   -0.37    0.02    0.22   -0.04    0.00    0.00      -0.63    1.12   -0.19
#  21   -1.31   -0.62    0.04    0.30   -0.07    0.00    0.00      -1.67    1.33   -0.32
#  22   -2.17   -1.10    0.17    0.40   -0.12    0.00    0.00      -2.82    1.26   -0.38
#  23   -3.08   -1.14    0.13    0.76   -0.17    0.00    0.00      -3.49    2.07   -0.46
#  24    1.21   -0.85    0.06   -0.15   -0.09    0.00    0.00       0.18   -0.48   -0.30
#  25   -6.75   -1.01    0.09    3.21    0.24    0.00    0.00      -4.22    8.30    0.62
#  26    1.18   -0.66    0.05   -0.61   -0.04    0.00    0.00      -0.09   -1.81   -0.12
#  27   -3.03   -0.84    0.17    0.48   -0.06    0.00    0.00      -3.27    1.47   -0.18
#  28   -5.41   -0.83    0.13    1.51   -0.09    0.00    0.00      -4.69    4.08   -0.24
#  29   19.29   -1.96    0.63   -7.47   -0.07    0.00    0.00      10.42  -16.78   -0.16
#  30  -33.83   -3.48    3.43   15.79   -0.22    0.00    0.00     -18.31   29.79   -0.41
#  31  -25.71   -2.79    2.54   13.74   -0.19    0.00    0.00     -12.40   31.88   -0.43
#  32    0.41   -0.46    0.02   -0.15   -0.03    0.00    0.00      -0.21   -0.56   -0.12
#  33   -6.28   -0.50    0.07    2.11    0.12    0.00    0.00      -4.48   11.10    0.61
#  34    1.36   -0.61    0.05   -0.08   -0.06    0.00    0.00       0.67   -0.37   -0.30
#  35   -1.81   -0.49    0.03    1.01   -0.07    0.00    0.00      -1.32    5.82   -0.40
#  36    6.28   -0.35    0.04   -2.63   -0.01    0.00    0.00       3.32  -20.23   -0.11
#  37   -4.29   -0.22    0.01    3.41   -0.05    0.00    0.00      -1.13   31.00   -0.42
#  38   -6.76   -0.57    0.22    3.87   -0.05    0.00    0.00      -3.30   28.32   -0.39
#  39    0.30   -0.04    0.00    0.13   -0.01    0.00    0.00       0.38    3.73   -0.28
#  40    0.32   -0.07    0.00    0.19   -0.02    0.00    0.00       0.42    2.69   -0.28
#  41    0.13   -0.02    0.00    0.01   -0.01    0.00    0.00       0.11    0.36   -0.28
#  42    0.12   -0.01    0.00    0.02    0.00    0.00    0.00       0.12    1.02   -0.28
#  43    0.09    0.00    0.00    0.01    0.00    0.00    0.00       0.09    1.28   -0.28
#  44    0.11   -0.01    0.00    0.00    0.00    0.00    0.00       0.11    0.36   -0.28
#  45    0.79    0.00    0.00   -0.07    0.01    0.00    0.00       0.73   -3.62    0.58
#  46    0.10   -0.06    0.00   -0.05   -0.01    0.00    0.00      -0.02   -0.93   -0.25
#  47    0.07   -0.02    0.00   -0.02   -0.01    0.00    0.00       0.02   -0.74   -0.28
#  48    0.05   -0.03    0.00   -0.02   -0.01    0.00    0.00       0.01   -0.67   -0.28
#  49    0.08   -0.05    0.00   -0.02   -0.01    0.00    0.00       0.00   -0.44   -0.28
#  50    0.15   -0.14    0.01   -0.09   -0.04    0.00    0.00      -0.11   -0.66   -0.28
#  51    0.49   -0.24    0.06   -0.27   -0.06    0.00    0.00      -0.02   -1.34   -0.28
#  52    0.92   -0.27    0.18   -0.16   -0.05    0.00    0.00       0.62   -0.89   -0.27
#  53    0.55   -0.05    0.00   -0.02   -0.01    0.00    0.00       0.47   -0.29   -0.23
#  54    0.78   -0.09    0.00   -0.02   -0.02    0.00    0.00       0.64   -0.29   -0.25
#  55    0.43   -0.24    0.07   -0.44   -0.05    0.00    0.00      -0.24   -2.24   -0.28
#  56    1.96   -0.33    0.07   -0.92   -0.09    0.00    0.00       0.69   -3.04   -0.28
#  57    2.76   -0.32    0.05   -1.08   -0.09    0.00    0.00       1.32   -3.28   -0.28
#  58    1.26   -0.32    0.05   -0.61   -0.08    0.00    0.00       0.31   -2.24   -0.28
#  59    3.55   -0.32    0.19   -0.57   -0.06    0.00    0.00       2.78   -2.59   -0.28
#  60    3.43   -0.63    0.98   -0.37   -0.08    0.00    0.00       3.32   -1.35   -0.28
#  61    1.46   -0.42    0.26   -0.68   -0.08    0.00    0.00       0.53   -2.28   -0.27
#  62    1.24   -0.16    0.01   -0.46   -0.05    0.00    0.00       0.58   -2.76   -0.28
#  63    1.07   -0.10    0.00   -0.18   -0.03    0.00    0.00       0.77   -1.85   -0.28
#  64    1.27   -0.21    0.02   -0.84   -0.06    0.00    0.00       0.17   -3.71   -0.28

@<TRIPOS>MOLECULE
       AVX38749_0       100
   64    67     0     0     0



@<TRIPOS>ATOM
      1 N1         13.9515   -16.1643    13.1709 N.4        1          -0.6366
      2 H1         14.7535   -15.6477    13.4997 H          1           0.4345
      3 H2         14.1616   -17.1511    13.1765 H          1           0.4358
      4 H3         13.1644   -15.9846    13.7762 H          1           0.4368
      5 C1         13.6238   -15.7412    11.8028 C.3        1          -0.0100
      6 C2         13.3050   -14.2448    11.7943 C.3        1          -0.1363
      7 C3         14.5209   -13.4615    12.2928 C.3        1          -0.1424
      8 C4         15.6966   -13.7299    11.3889 C.2        1           0.5136
      9 O1         15.8920   -13.0235    10.4224 O.2        1          -0.5491
     10 N2         16.5307   -14.7548    11.6542 N.am       1          -0.7025
     11 C5         17.6733   -15.0156    10.7754 C.3        1           0.1484
     12 C6         18.9413   -14.3334    11.3001 C.3        1          -0.0835
     13 C7         20.0715   -15.2150    10.8310 C.ar       1          -0.1052
     14 C8         21.4187   -14.9507    10.6528 C.ar       1          -0.1139
     15 C9         22.2671   -15.9445    10.2050 C.ar       1          -0.1242
     16 C10        21.7704   -17.2058     9.9336 C.ar       1          -0.1182
     17 C11        20.4263   -17.4706    10.1104 C.ar       1          -0.0851
     18 C12        19.5750   -16.4754    10.5597 C.ar       1          -0.0749
     19 C13        18.0924   -16.4884    10.8361 C.3        1          -0.0587
     20 C14        17.3572   -17.2966     9.7650 C.3        1          -0.0515
     21 C15        17.4343   -18.7636    10.1013 C.ar       1          -0.0813
     22 C16        18.0354   -19.6405     9.2259 C.ar       1          -0.1124
     23 C17        18.1111   -20.9903     9.5279 C.ar       1          -0.1345
     24 C18        17.5837   -21.4739    10.7143 C.ar       1           0.0514
     25 O2         17.6700   -22.8026    10.9976 O.3        1          -0.3009
     26 C19        16.7926   -23.3016    12.0121 C.3        1           0.0522
     27 C20        15.3555   -23.3306    11.4877 C.3        1          -0.0823
     28 C21        14.5222   -24.2929    12.3365 C.3        1          -0.1793
     29 C22        13.1067   -24.3215    11.8200 C.2        1           0.4913
     30 O3         12.8831   -24.6707    10.6735 O.co2      1          -0.7006
     31 O4         12.1852   -23.9953    12.5487 O.co2      1          -0.7091
     32 C23        16.8900   -22.3514    13.2115 C.3        1           0.0244
     33 O5         16.4491   -21.0624    12.7731 O.3        1          -0.2953
     34 C24        16.9726   -20.6021    11.6082 C.ar       1           0.0614
     35 C25        16.9002   -19.2348    11.3057 C.ar       1          -0.1015
     36 C26        16.2617   -18.3013    12.2475 C.2        1           0.5472
     37 O6         16.9297   -17.7550    13.1148 O.co2      1          -0.6868
     38 O7         15.0630   -18.0716    12.1632 O.co2      1          -0.6889
     39 H4         14.4740   -15.9353    11.1491 H          1           0.1336
     40 H5         12.7574   -16.2993    11.4477 H          1           0.1364
     41 H6         13.0619   -13.9309    10.7792 H          1           0.0977
     42 H7         12.4547   -14.0507    12.4480 H          1           0.0941
     43 H8         14.2940   -12.3955    12.2867 H          1           0.1019
     44 H9         14.7643   -13.7753    13.3079 H          1           0.1080
     45 H10        16.3743   -15.3196    12.4272 H          1           0.4050
     46 H11        17.4567   -14.7104     9.7517 H          1           0.1087
     47 H12        19.0380   -13.3338    10.8762 H          1           0.0890
     48 H13        18.9239   -14.2851    12.3889 H          1           0.0706
     49 H14        21.8072   -13.9655    10.8647 H          1           0.1118
     50 H15        23.3179   -15.7364    10.0675 H          1           0.1182
     51 H16        22.4329   -17.9838     9.5837 H          1           0.1221
     52 H17        20.0387   -18.4559     9.8978 H          1           0.1238
     53 H18        17.8941   -16.8993    11.8261 H          1           0.1110
     54 H19        16.3129   -16.9866     9.7287 H          1           0.0854
     55 H20        17.8221   -17.1214     8.7947 H          1           0.0666
     56 H21        18.4498   -19.2738     8.2984 H          1           0.1176
     57 H22        18.5840   -21.6698     8.8343 H          1           0.1251
     58 H23        17.0995   -24.3054    12.3060 H          1           0.0767
     59 H24        14.9271   -22.3300    11.5466 H          1           0.0825
     60 H25        15.3538   -23.6661    10.4507 H          1           0.0728
     61 H26        14.9506   -25.2934    12.2776 H          1           0.0645
     62 H27        14.5238   -23.9574    13.3736 H          1           0.0549
     63 H28        16.2495   -22.7070    14.0186 H          1           0.0730
     64 H29        17.9232   -22.2925    13.5541 H          1           0.1167
@<TRIPOS>BOND
     1    1    2 1
     2    1    3 1
     3    1    4 1
     4    1    5 1
     5    5    6 1
     6    5   39 1
     7    5   40 1
     8    6    7 1
     9    6   41 1
    10    6   42 1
    11    7    8 1
    12    7   43 1
    13    7   44 1
    14    8    9 2
    15    8   10 am
    16   10   11 1
    17   10   45 1
    18   11   19 1
    19   11   12 1
    20   11   46 1
    21   12   13 1
    22   12   47 1
    23   12   48 1
    24   13   18 ar
    25   13   14 ar
    26   14   15 ar
    27   14   49 1
    28   15   16 ar
    29   15   50 1
    30   16   17 ar
    31   16   51 1
    32   17   18 ar
    33   17   52 1
    34   18   19 1
    35   19   20 1
    36   19   53 1
    37   20   21 1
    38   20   54 1
    39   20   55 1
    40   21   35 ar
    41   21   22 ar
    42   22   23 ar
    43   22   56 1
    44   23   24 ar
    45   23   57 1
    46   24   34 ar
    47   24   25 1
    48   25   26 1
    49   26   27 1
    50   26   32 1
    51   26   58 1
    52   27   28 1
    53   27   59 1
    54   27   60 1
    55   28   29 1
    56   28   61 1
    57   28   62 1
    58   29   30 1
    59   29   31 2
    60   32   33 1
    61   32   63 1
    62   32   64 1
    63   33   34 1
    64   34   35 ar
    65   35   36 1
    66   36   37 1
    67   36   38 2
