AVX38785_1, 3
##########                 Name:           AVX38785_0
##########          Protonation:                   77
##########               SMILES:   C[NH+](Cc1ccccc1C(=O)NCc2ccccc2)Cc3ccc4c(c3C(=O)[O-])OC[C@H](O4)CCC(=O)[O-]
##########            Long Name:   ]methyl]-2-(3-oxido-3-oxo-propyl)-2,3-dihydro-1,4-benzodioxine-5-carboxylate
##########          FlexRecCode: 1
##########               Number:                   88
##########   Ligand Source File: /raid1/people/rgc/Examples/sampl4/screening/ligands/build_1//sampl4-hivint-00000
##########           GlobalRank: 103
##########                 Rank:                    1
##########               Setnum:                   28
##########             Matchnum:                 7435
##########                Cloud:                    1
##########        Electrostatic:           -32.136055
##########        Van der Waals:           -10.263375
##########  Ligand Polar Desolv:            12.011885
########## Ligand Apolar Desolv:            -2.464336
##########      Internal Energy:             0.000000
##########      Receptor Energy: 0.0
########## Receptor Desolvation:             0.000000
########## Receptor Hydrophobic:             0.000000
##########         Total Energy: -32.85
##########        Ligand Charge:            -1.000000
##########            Arbitrary:    +999.9990
##########     heavy atom count:   38
##########           pose count:    1
##########        Ligand Energy:             0.000000
# num electro vdwattr vdwrepu polsolv apolsol rdesolv rhydroe totalscore fullpol fullapo
#   1   -0.04   -0.03    0.00   -0.01   -0.01    0.00    0.00      -0.09   -0.57   -0.41
#   2   -0.28   -0.08    0.00   -0.06    0.01    0.00    0.00      -0.41   -1.41    0.16
#   3    0.37    0.00    0.00    0.03    0.00    0.00    0.00       0.40    1.90    0.32
#   4    0.02   -0.27    0.05    0.02   -0.03    0.00    0.00      -0.21    0.18   -0.30
#   5   -0.06   -0.44    0.06   -0.06   -0.04    0.00    0.00      -0.53   -0.48   -0.30
#   6   -0.08   -0.31    0.02   -0.09   -0.05    0.00    0.00      -0.51   -0.75   -0.40
#   7   -0.10   -0.58    0.13   -0.10   -0.07    0.00    0.00      -0.72   -0.67   -0.47
#   8   -0.10   -0.74    0.12   -0.17   -0.11    0.00    0.00      -1.00   -0.72   -0.47
#   9   -0.04   -0.71    0.05   -0.11   -0.11    0.00    0.00      -0.92   -0.47   -0.44
#  10   -0.09   -0.56    0.06   -0.10   -0.07    0.00    0.00      -0.75   -0.57   -0.40
#  11    1.02   -0.60    0.08    0.09   -0.11    0.00    0.00       0.48    0.53   -0.63
#  12   -1.30   -0.79    0.25    0.24    0.05    0.00    0.00      -1.55    1.42    0.29
#  13   -2.38   -0.49    0.02   -0.15    0.42    0.00    0.00      -2.57   -0.82    2.32
#  14    1.68   -0.33    0.02   -0.06   -0.08    0.00    0.00       1.23   -0.31   -0.44
#  15   -1.94   -0.89    0.11    0.06   -0.11    0.00    0.00      -2.76    0.22   -0.37
#  16   -1.56   -1.22    0.15    0.07   -0.15    0.00    0.00      -2.70    0.21   -0.45
#  17   -2.46   -1.94    0.48    0.11   -0.20    0.00    0.00      -4.01    0.26   -0.47
#  18   -3.09   -2.92    2.15    0.13   -0.22    0.00    0.00      -3.94    0.28   -0.47
#  19   -3.31   -2.40    1.81    0.16   -0.21    0.00    0.00      -3.95    0.35   -0.47
#  20   -2.11   -1.36    0.37    0.10   -0.16    0.00    0.00      -3.15    0.28   -0.45
#  21    0.05   -0.04    0.00   -0.02   -0.01    0.00    0.00      -0.02   -0.59   -0.26
#  22   -0.08   -0.09    0.00    0.01   -0.01    0.00    0.00      -0.18    0.34   -0.39
#  23   -0.17   -0.24    0.01    0.02   -0.03    0.00    0.00      -0.41    0.21   -0.34
#  24   -0.24   -0.29    0.01    0.07   -0.05    0.00    0.00      -0.50    0.59   -0.46
#  25    0.12   -0.15    0.00    0.01   -0.02    0.00    0.00      -0.04    0.14   -0.30
#  26   -1.17   -0.15    0.01    0.54    0.05    0.00    0.00      -0.73    6.33    0.62
#  27    0.15   -0.23    0.07   -0.17   -0.01    0.00    0.00      -0.20   -1.69   -0.12
#  28   -0.25   -0.16    0.02    0.13   -0.02    0.00    0.00      -0.28    1.43   -0.18
#  29   -1.81   -0.21    0.02    0.39   -0.03    0.00    0.00      -1.64    3.50   -0.24
#  30   11.66   -1.10    1.00   -2.80   -0.03    0.00    0.00       8.74  -15.53   -0.16
#  31  -24.16   -2.97    7.47    7.38   -0.11    0.00    0.00     -12.39   28.61   -0.41
#  32  -19.39   -0.76    0.26    5.71   -0.08    0.00    0.00     -14.26   30.29   -0.43
#  33    0.04   -0.10    0.01   -0.03   -0.01    0.00    0.00      -0.09   -0.42   -0.12
#  34   -0.48   -0.09    0.00    0.50    0.02    0.00    0.00      -0.05    8.67    0.27
#  35    0.16   -0.09    0.00   -0.03   -0.01    0.00    0.00       0.03   -0.74   -0.30
#  36   -0.13   -0.06    0.00    0.09   -0.01    0.00    0.00      -0.11    4.27   -0.41
#  37    0.57   -0.03    0.00   -0.20    0.00    0.00    0.00       0.35  -14.11   -0.17
#  38   -0.84   -0.03    0.00    0.29   -0.01    0.00    0.00      -0.59   18.76   -0.33
#  39   -0.56   -0.01    0.00    0.24   -0.01    0.00    0.00      -0.34   27.37   -0.59
#  40    0.07   -0.01    0.00    0.01    0.00    0.00    0.00       0.07    1.26   -0.28
#  41    0.09    0.00    0.00    0.00    0.00    0.00    0.00       0.09    0.70   -0.18
#  42    0.08   -0.01    0.00    0.02    0.00    0.00    0.00       0.09    1.89   -0.22
#  43    0.09   -0.15    0.05    0.02   -0.02    0.00    0.00      -0.02    0.17   -0.20
#  44    0.06   -0.08    0.01    0.09   -0.02    0.00    0.00       0.07    1.23   -0.27
#  45    0.11   -0.03    0.00    0.05   -0.01    0.00    0.00       0.12    1.92   -0.28
#  46    0.18   -0.18    0.08    0.18   -0.03    0.00    0.00       0.23    1.45   -0.28
#  47    0.02   -0.19    0.04    0.20   -0.05    0.00    0.00       0.02    1.20   -0.28
#  48   -0.67   -0.26    0.06    0.20   -0.04    0.00    0.00      -0.71    1.00   -0.22
#  49    0.38   -0.01    0.00    0.15    0.05    0.00    0.00       0.57    1.43    0.43
#  50    0.94   -0.11    0.02   -0.02   -0.03    0.00    0.00       0.80   -0.19   -0.28
#  51    0.91   -0.08    0.00   -0.01   -0.02    0.00    0.00       0.81   -0.21   -0.28
#  52    1.45   -0.26    0.03   -0.03   -0.07    0.00    0.00       1.13   -0.11   -0.28
#  53    2.32   -0.56    0.22   -0.01   -0.11    0.00    0.00       1.86   -0.03   -0.28
#  54    4.57   -1.01    1.50   -0.04   -0.14    0.00    0.00       4.87   -0.08   -0.28
#  55    4.10   -0.45    0.14   -0.09   -0.14    0.00    0.00       3.56   -0.18   -0.28
#  56    2.71   -0.22    0.03   -0.05   -0.07    0.00    0.00       2.39   -0.19   -0.28
#  57    0.11    0.00    0.00   -0.01    0.00    0.00    0.00       0.09   -0.93   -0.23
#  58    0.08   -0.02    0.00   -0.01    0.00    0.00    0.00       0.05   -0.87   -0.26
#  59    0.07   -0.08    0.01    0.03   -0.01    0.00    0.00       0.02    0.44   -0.18
#  60    0.41   -0.13    0.02   -0.16   -0.03    0.00    0.00       0.11   -1.32   -0.28
#  61    0.33   -0.32    0.53   -0.24   -0.04    0.00    0.00       0.26   -1.86   -0.28
#  62    0.24   -0.06    0.01   -0.13   -0.02    0.00    0.00       0.03   -2.02   -0.28
#  63    0.17   -0.02    0.00   -0.03   -0.01    0.00    0.00       0.12   -1.20   -0.28
#  64    0.56   -0.05    0.00   -0.09   -0.01    0.00    0.00       0.41   -2.25   -0.27
#  65    0.49   -0.05    0.00   -0.13   -0.01    0.00    0.00       0.30   -2.39   -0.28
#  66    0.12   -0.01    0.00   -0.02    0.00    0.00    0.00       0.08   -1.53   -0.28
#  67    0.27   -0.04    0.00   -0.13   -0.01    0.00    0.00       0.09   -2.89   -0.28

@<TRIPOS>MOLECULE
       AVX38785_0        77
   67    70     0     0     0



@<TRIPOS>ATOM
      1 C1         16.1932   -22.1481    21.1996 C.3        1          -0.0637
      2 N1         16.5129   -21.7110    19.8340 N.4        1          -0.3784
      3 H1         15.7088   -21.8480    19.2402 H          1           0.4149
      4 C2         17.6415   -22.4980    19.3196 C.3        1           0.0367
      5 C3         17.2704   -23.9586    19.3055 C.ar       1          -0.0835
      6 C4         17.5185   -24.7456    20.4113 C.ar       1          -0.0993
      7 C5         17.1785   -26.0865    20.4001 C.ar       1          -0.0871
      8 C6         16.5878   -26.6476    19.2814 C.ar       1          -0.1023
      9 C7         16.3340   -25.8717    18.1695 C.ar       1          -0.0808
     10 C8         16.6698   -24.5167    18.1762 C.ar       1          -0.1210
     11 C9         16.3956   -23.6780    16.9901 C.2        1           0.5527
     12 O1         17.1129   -22.7300    16.7368 O.2        1          -0.5409
     13 N2         15.3500   -23.9645    16.1892 N.am       1          -0.7082
     14 C10        15.0781   -23.1333    15.0139 C.3        1           0.1574
     15 C11        15.1459   -23.9832    13.7712 C.ar       1          -0.1169
     16 C12        16.3467   -24.1374    13.1040 C.ar       1          -0.0999
     17 C13        16.4088   -24.9170    11.9641 C.ar       1          -0.1220
     18 C14        15.2703   -25.5426    11.4917 C.ar       1          -0.1081
     19 C15        14.0697   -25.3890    12.1593 C.ar       1          -0.1202
     20 C16        14.0085   -24.6130    13.3017 C.ar       1          -0.0982
     21 C17        16.8745   -20.2872    19.8476 C.3        1           0.0711
     22 C18        16.7243   -19.7176    18.4607 C.ar       1          -0.1010
     23 C19        17.7865   -19.7475    17.5844 C.ar       1          -0.1663
     24 C20        17.6565   -19.2240    16.3089 C.ar       1          -0.1057
     25 C21        16.4570   -18.6637    15.8982 C.ar       1           0.0511
     26 O2         16.3562   -18.1478    14.6424 O.3        1          -0.2968
     27 C22        15.0331   -17.9313    14.1402 C.3        1           0.0496
     28 C23        15.0921   -17.0407    12.8975 C.3        1          -0.0833
     29 C24        15.9378   -17.7233    11.8206 C.3        1          -0.1799
     30 C25        15.3177   -19.0485    11.4598 C.2        1           0.4904
     31 O3         14.1838   -19.0896    11.0138 O.co2      1          -0.6990
     32 O4         15.9499   -20.0795    11.6139 O.co2      1          -0.7072
     33 C26        14.2108   -17.2381    15.2350 C.3        1           0.0174
     34 O5         14.1889   -18.0897    16.3859 O.3        1          -0.2559
     35 C27        15.3746   -18.6287    16.7690 C.ar       1           0.1023
     36 C28        15.5041   -19.1630    18.0598 C.ar       1          -0.1171
     37 C29        14.3638   -19.1346    18.9898 C.2        1           0.5230
     38 O6         13.5761   -20.0700    19.0204 O.co2      1          -0.6964
     39 O7         14.2035   -18.1754    19.7322 O.co2      1          -0.6420
     40 H2         17.0619   -22.0000    21.8411 H          1           0.1214
     41 H3         15.3558   -21.5641    21.5814 H          1           0.1320
     42 H4         15.9248   -23.2046    21.1895 H          1           0.1092
     43 H5         17.8786   -22.1737    18.3063 H          1           0.1586
     44 H6         18.5102   -22.3500    19.9611 H          1           0.1313
     45 H7         17.9794   -24.3140    21.2874 H          1           0.1422
     46 H8         17.3750   -26.6983    21.2681 H          1           0.1390
     47 H9         16.3255   -27.6952    19.2787 H          1           0.1385
     48 H10        15.8730   -26.3108    17.2971 H          1           0.1338
     49 H11        14.7774   -24.7210    16.3913 H          1           0.4040
     50 H12        14.0838   -22.6953    15.1007 H          1           0.0867
     51 H13        15.8212   -22.3383    14.9513 H          1           0.0854
     52 H14        17.2363   -23.6487    13.4731 H          1           0.1242
     53 H15        17.3468   -25.0369    11.4424 H          1           0.1252
     54 H16        15.3188   -26.1511    10.6007 H          1           0.1248
     55 H17        13.1801   -25.8776    11.7901 H          1           0.1267
     56 H18        13.0712   -24.4961    13.8255 H          1           0.1261
     57 H19        16.2176   -19.7520    20.5334 H          1           0.1567
     58 H20        17.9083   -20.1781    20.1754 H          1           0.1420
     59 H21        18.7258   -20.1812    17.8938 H          1           0.1093
     60 H22        18.4955   -19.2523    15.6295 H          1           0.1343
     61 H23        14.5755   -18.8873    13.8857 H          1           0.0817
     62 H24        14.0831   -16.8783    12.5184 H          1           0.0868
     63 H25        15.5408   -16.0821    13.1584 H          1           0.0741
     64 H26        15.9801   -17.0888    10.9353 H          1           0.0629
     65 H27        16.9469   -17.8855    12.1997 H          1           0.0560
     66 H28        14.6712   -16.2843    15.4922 H          1           0.0766
     67 H29        13.1932   -17.0722    14.8811 H          1           0.1245
@<TRIPOS>BOND
     1    1    2 1
     2    1   40 1
     3    1   41 1
     4    1   42 1
     5    2    3 1
     6    2    4 1
     7    2   21 1
     8    4    5 1
     9    4   43 1
    10    4   44 1
    11    5   10 ar
    12    5    6 ar
    13    6    7 ar
    14    6   45 1
    15    7    8 ar
    16    7   46 1
    17    8    9 ar
    18    8   47 1
    19    9   10 ar
    20    9   48 1
    21   10   11 1
    22   11   12 2
    23   11   13 am
    24   13   14 1
    25   13   49 1
    26   14   15 1
    27   14   50 1
    28   14   51 1
    29   15   20 ar
    30   15   16 ar
    31   16   17 ar
    32   16   52 1
    33   17   18 ar
    34   17   53 1
    35   18   19 ar
    36   18   54 1
    37   19   20 ar
    38   19   55 1
    39   20   56 1
    40   21   22 1
    41   21   57 1
    42   21   58 1
    43   22   36 ar
    44   22   23 ar
    45   23   24 ar
    46   23   59 1
    47   24   25 ar
    48   24   60 1
    49   25   35 ar
    50   25   26 1
    51   26   27 1
    52   27   28 1
    53   27   33 1
    54   27   61 1
    55   28   29 1
    56   28   62 1
    57   28   63 1
    58   29   30 1
    59   29   64 1
    60   29   65 1
    61   30   31 1
    62   30   32 2
    63   33   34 1
    64   33   66 1
    65   33   67 1
    66   34   35 1
    67   35   36 ar
    68   36   37 1
    69   37   38 1
    70   37   39 2
