AVX38741_1, 3
##########                 Name:           AVX38741_0
##########          Protonation:                   97
##########               SMILES:   c1ccc(cc1)CN2CN(Cc3ccccc3C2=O)Cc4ccc5c(c4C(=O)[O-])OC[C@H](O5)CCC(=O)[O-]
##########            Long Name:   )methyl]-2-(3-oxido-3-oxo-propyl)-2,3-dihydro-1,4-benzodioxine-5-carboxylate
##########          FlexRecCode: 1
##########               Number:                  147
##########   Ligand Source File: /raid1/people/rgc/Examples/sampl4/screening/ligands/build_1//sampl4-hivint-00000
##########           GlobalRank: 71
##########                 Rank:                    1
##########               Setnum:                   21
##########             Matchnum:                20894
##########                Cloud:                    1
##########        Electrostatic:           -35.495087
##########        Van der Waals:           -26.788229
##########  Ligand Polar Desolv:            27.408953
########## Ligand Apolar Desolv:            -3.381444
##########      Internal Energy:             0.000000
##########      Receptor Energy: 0.0
########## Receptor Desolvation:             0.000000
########## Receptor Hydrophobic:             0.000000
##########         Total Energy: -38.26
##########        Ligand Charge:            -2.000000
##########            Arbitrary:    +999.9990
##########     heavy atom count:   38
##########           pose count:    1
##########        Ligand Energy:             0.000000
# num electro vdwattr vdwrepu polsolv apolsol rdesolv rhydroe totalscore fullpol fullapo
#   1   -0.98   -0.06    0.00    0.84   -0.01    0.00    0.00      -0.21   32.56   -0.41
#   2    0.59   -0.09    0.00   -0.65   -0.01    0.00    0.00      -0.16  -18.58   -0.16
#   3   -0.85   -0.07    0.00    1.25   -0.02    0.00    0.00       0.31   34.73   -0.43
#   4   -0.16   -0.12    0.00    0.32   -0.02    0.00    0.00       0.02    4.70   -0.24
#   5   -0.09   -0.22    0.01    0.22   -0.02    0.00    0.00      -0.11    1.67   -0.18
#   6    0.20   -0.31    0.01   -0.39   -0.02    0.00    0.00      -0.51   -2.18   -0.12
#   7    0.06   -0.89    0.28   -0.14   -0.03    0.00    0.00      -0.72   -0.51   -0.12
#   8   -3.59   -0.91    0.15    3.59    0.08    0.00    0.00      -0.68   11.93    0.27
#   9    1.17   -0.94    0.08   -0.37   -0.09    0.00    0.00      -0.15   -1.26   -0.30
#  10   -2.48   -1.03    0.08    2.36   -0.14    0.00    0.00      -1.21    6.98   -0.41
#  11   18.44   -1.76    0.83   -7.91   -0.06    0.00    0.00       9.54  -20.90   -0.17
#  12  -22.59   -2.70    1.83   17.76   -0.29    0.00    0.00      -5.99   35.85   -0.59
#  13  -32.29   -2.54    2.28    9.99   -0.12    0.00    0.00     -22.68   27.72   -0.32
#  14   -1.05   -1.33    0.20    0.38   -0.11    0.00    0.00      -1.92    1.10   -0.32
#  15    2.29   -1.00    0.18   -1.48   -0.13    0.00    0.00      -0.14   -3.51   -0.30
#  16   -8.68   -1.18    0.26    4.93    0.97    0.00    0.00      -3.70   14.27    2.82
#  17    6.24   -0.48    0.04   -1.87   -0.29    0.00    0.00       3.63   -7.66   -1.19
#  18   -8.73   -0.59    0.07    2.50    0.32    0.00    0.00      -6.43   12.84    1.62
#  19    1.76   -0.23    0.01   -0.40   -0.06    0.00    0.00       1.09   -2.97   -0.42
#  20   -1.18   -0.39    0.02    0.34   -0.05    0.00    0.00      -1.27    2.38   -0.38
#  21   -0.53   -0.31    0.01    0.30   -0.05    0.00    0.00      -0.59    2.51   -0.45
#  22   -0.27   -0.47    0.02    0.36   -0.08    0.00    0.00      -0.44    2.04   -0.47
#  23   -0.42   -1.00    0.15    0.36   -0.12    0.00    0.00      -1.04    1.39   -0.47
#  24   -2.01   -1.51    0.42    0.53   -0.14    0.00    0.00      -2.72    1.74   -0.47
#  25   -1.92   -0.94    0.19    0.50   -0.11    0.00    0.00      -2.27    2.09   -0.45
#  26    5.12   -0.84    0.27   -2.73   -0.12    0.00    0.00       1.70  -12.15   -0.54
#  27   -2.85   -0.43    0.03    2.16    0.07    0.00    0.00      -1.02   12.92    0.39
#  28   -1.01   -1.39    0.88    1.05   -0.10    0.00    0.00      -0.57    3.37   -0.33
#  29   -0.32   -1.18    0.34    0.37   -0.13    0.00    0.00      -0.92    1.29   -0.46
#  30   -0.56   -1.40    0.51    0.42   -0.16    0.00    0.00      -1.19    1.28   -0.47
#  31   -0.53   -1.47    0.22    0.54   -0.21    0.00    0.00      -1.43    1.24   -0.47
#  32   -0.74   -1.73    0.47    1.32   -0.22    0.00    0.00      -0.90    2.71   -0.45
#  33   -0.39   -1.56    0.64    0.69   -0.13    0.00    0.00      -0.75    1.78   -0.34
#  34    1.35   -1.06    0.26   -1.05   -0.14    0.00    0.00      -0.63   -2.48   -0.33
#  35   -1.30   -2.09    0.65    0.76   -0.15    0.00    0.00      -2.12    2.15   -0.42
#  36   -1.03   -2.07    1.16    0.67   -0.15    0.00    0.00      -1.42    2.04   -0.46
#  37    0.31   -1.19    0.28   -0.04   -0.08    0.00    0.00      -0.73   -0.15   -0.30
#  38   -1.46   -0.79    0.18    2.11    0.14    0.00    0.00       0.17    9.66    0.62
#  39    0.04   -0.06    0.00   -0.20   -0.02    0.00    0.00      -0.23   -3.14   -0.28
#  40    0.06   -0.02    0.00   -0.05   -0.01    0.00    0.00      -0.02   -2.60   -0.27
#  41    0.01   -0.10    0.00   -0.15   -0.03    0.00    0.00      -0.26   -1.62   -0.28
#  42    0.09   -0.05    0.00   -0.13   -0.01    0.00    0.00      -0.10   -3.02   -0.28
#  43    0.43   -0.05    0.00   -0.12   -0.01    0.00    0.00       0.25   -2.58   -0.28
#  44   -0.25   -0.61    0.49   -0.66   -0.08    0.00    0.00      -1.11   -2.22   -0.28
#  45    0.25   -0.27    0.08   -0.93   -0.06    0.00    0.00      -0.94   -4.45   -0.28
#  46    0.25   -0.76    0.71   -0.73   -0.10    0.00    0.00      -0.63   -1.92   -0.26
#  47    3.76   -0.26    0.02   -0.64   -0.07    0.00    0.00       2.82   -1.90   -0.20
#  48    3.18   -0.23    0.04   -0.34   -0.04    0.00    0.00       2.60   -2.03   -0.26
#  49    2.16   -0.11    0.01   -0.16   -0.02    0.00    0.00       1.87   -1.77   -0.24
#  50    1.25   -0.07    0.01   -0.12   -0.02    0.00    0.00       1.04   -1.68   -0.26
#  51    0.60   -0.05    0.00   -0.09   -0.01    0.00    0.00       0.45   -1.73   -0.27
#  52    0.40   -0.04    0.00   -0.07   -0.01    0.00    0.00       0.28   -2.07   -0.28
#  53    0.16   -0.08    0.00   -0.15   -0.02    0.00    0.00      -0.08   -2.08   -0.28
#  54    0.25   -0.29    0.08   -0.41   -0.06    0.00    0.00      -0.44   -1.78   -0.28
#  55    2.61   -0.80    0.98   -0.62   -0.09    0.00    0.00       2.07   -1.90   -0.28
#  56    4.23   -0.39    0.37   -0.38   -0.05    0.00    0.00       3.79   -1.96   -0.26
#  57    0.35   -0.13    0.01   -0.34   -0.04    0.00    0.00      -0.15   -2.31   -0.28
#  58    0.37   -0.27    0.13   -0.38   -0.05    0.00    0.00      -0.19   -2.00   -0.28
#  59    0.54   -0.31    0.04   -0.78   -0.10    0.00    0.00      -0.61   -2.24   -0.28
#  60    0.83   -0.51    0.31   -0.96   -0.11    0.00    0.00      -0.45   -2.37   -0.28
#  61    1.12   -0.46    0.16   -0.53   -0.09    0.00    0.00       0.21   -1.43   -0.24
#  62    0.85   -0.47    0.26   -0.38   -0.09    0.00    0.00       0.17   -1.07   -0.25
#  63    0.70   -0.98    1.75   -1.56   -0.11    0.00    0.00      -0.19   -4.11   -0.28
#  64    0.76   -0.66    1.08   -1.32   -0.09    0.00    0.00      -0.23   -4.19   -0.28

@<TRIPOS>MOLECULE
       AVX38741_0        97
   64    68     0     0     0



@<TRIPOS>ATOM
      1 O1         13.6368   -22.0773    18.5220 O.co2      1          -0.7014
      2 C1         14.8344   -21.9426    18.3377 C.2        1           0.4917
      3 O2         15.2818   -20.8586    18.0041 O.co2      1          -0.7111
      4 C2         15.7626   -23.1144    18.5280 C.3        1          -0.1792
      5 C3         15.3657   -24.2403    17.5709 C.3        1          -0.0812
      6 C4         15.4636   -23.7412    16.1279 C.3        1           0.0508
      7 C5         15.0955   -24.8756    15.1620 C.3        1           0.0193
      8 O3         15.2125   -24.3801    13.8237 O.3        1          -0.2594
      9 C6         16.3347   -23.6748    13.5298 C.ar       1           0.0795
     10 C7         16.6938   -23.4783    12.1879 C.ar       1          -0.1139
     11 C8         15.8610   -24.0359    11.1101 C.2        1           0.5297
     12 O4         16.0845   -25.1608    10.6841 O.co2      1          -0.6727
     13 O5         14.9450   -23.3747    10.6405 O.co2      1          -0.6761
     14 C9         17.8475   -22.7494    11.8792 C.ar       1          -0.0612
     15 C10        18.2406   -22.5331    10.4406 C.3        1           0.1116
     16 N1         18.6266   -21.1295    10.2441 N.3        1          -0.4937
     17 C11        17.4792   -20.2503    10.3810 C.3        1           0.2798
     18 N2         17.7982   -18.8761    10.6999 N.am       1          -0.6187
     19 C12        16.8638   -18.1741    11.5831 C.3        1           0.1501
     20 C13        15.8011   -17.4987    10.7551 C.ar       1          -0.1005
     21 C14        15.9936   -16.2060    10.3046 C.ar       1          -0.1010
     22 C15        15.0189   -15.5863     9.5452 C.ar       1          -0.1237
     23 C16        13.8518   -16.2595     9.2357 C.ar       1          -0.1217
     24 C17        13.6596   -17.5524     9.6856 C.ar       1          -0.1293
     25 C18        14.6362   -18.1736    10.4415 C.ar       1          -0.0961
     26 C19        18.8327   -18.1954    10.2831 C.2        1           0.5675
     27 O6         18.7566   -17.0084    10.5336 O.2        1          -0.5396
     28 C20        20.0598   -18.5563     9.5818 C.ar       1          -0.1296
     29 C21        21.0225   -17.5291     9.4737 C.ar       1          -0.0725
     30 C22        22.2196   -17.7384     8.8367 C.ar       1          -0.1314
     31 C23        22.4960   -18.9781     8.2866 C.ar       1          -0.0988
     32 C24        21.5654   -19.9885     8.3843 C.ar       1          -0.1027
     33 C25        20.3453   -19.7931     9.0271 C.ar       1          -0.0393
     34 C26        19.4298   -20.9762     9.0591 C.3        1           0.0877
     35 C27        18.6230   -22.2292    12.8914 C.ar       1          -0.1370
     36 C28        18.2686   -22.4250    14.2159 C.ar       1          -0.1244
     37 C29        17.1299   -23.1461    14.5392 C.ar       1           0.0340
     38 O7         16.8070   -23.3327    15.8486 O.3        1          -0.3040
     39 H1         16.7866   -22.8046    18.3197 H          1           0.0549
     40 H2         15.6926   -23.4702    19.5560 H          1           0.0643
     41 H3         16.0370   -25.0879    17.7087 H          1           0.0712
     42 H4         14.3416   -24.5502    17.7795 H          1           0.0814
     43 H5         14.7859   -22.9000    15.9832 H          1           0.0750
     44 H6         15.7763   -25.7149    15.3041 H          1           0.0684
     45 H7         14.0706   -25.1976    15.3466 H          1           0.1144
     46 H8         19.0826   -23.1795    10.1930 H          1           0.0159
     47 H9         17.3966   -22.7719     9.7935 H          1           0.1243
     48 H10        16.9215   -20.2650     9.4446 H          1           0.1055
     49 H11        16.8360   -20.6450    11.1675 H          1           0.0857
     50 H12        16.3967   -18.8894    12.2602 H          1           0.0863
     51 H13        17.4040   -17.4251    12.1621 H          1           0.0903
     52 H14        16.9055   -15.6802    10.5462 H          1           0.1273
     53 H15        15.1691   -14.5762     9.1937 H          1           0.1210
     54 H16        13.0900   -15.7751     8.6431 H          1           0.1164
     55 H17        12.7477   -18.0782     9.4442 H          1           0.1166
     56 H18        14.4877   -19.1851    10.7898 H          1           0.1258
     57 H19        20.8127   -16.5598     9.9012 H          1           0.1252
     58 H20        22.9426   -16.9394     8.7643 H          1           0.1243
     59 H21        23.4357   -19.1518     7.7835 H          1           0.1250
     60 H22        21.7865   -20.9537     7.9530 H          1           0.1324
     61 H23        20.0344   -21.8755     8.9411 H          1           0.0913
     62 H24        18.7598   -20.9096     8.2020 H          1           0.0401
     63 H25        19.5125   -21.6658    12.6511 H          1           0.1138
     64 H26        18.8838   -22.0130    15.0022 H          1           0.1222
@<TRIPOS>BOND
     1    1    2 1
     2    2    3 2
     3    2    4 1
     4    4    5 1
     5    4   39 1
     6    4   40 1
     7    5    6 1
     8    5   41 1
     9    5   42 1
    10    6   38 1
    11    6    7 1
    12    6   43 1
    13    7    8 1
    14    7   44 1
    15    7   45 1
    16    8    9 1
    17    9   37 ar
    18    9   10 ar
    19   10   11 1
    20   10   14 ar
    21   11   12 1
    22   11   13 2
    23   14   15 1
    24   14   35 ar
    25   15   16 1
    26   15   46 1
    27   15   47 1
    28   16   34 1
    29   16   17 1
    30   17   18 1
    31   17   48 1
    32   17   49 1
    33   18   19 1
    34   18   26 am
    35   19   20 1
    36   19   50 1
    37   19   51 1
    38   20   25 ar
    39   20   21 ar
    40   21   22 ar
    41   21   52 1
    42   22   23 ar
    43   22   53 1
    44   23   24 ar
    45   23   54 1
    46   24   25 ar
    47   24   55 1
    48   25   56 1
    49   26   27 2
    50   26   28 1
    51   28   33 ar
    52   28   29 ar
    53   29   30 ar
    54   29   57 1
    55   30   31 ar
    56   30   58 1
    57   31   32 ar
    58   31   59 1
    59   32   33 ar
    60   32   60 1
    61   33   34 1
    62   34   61 1
    63   34   62 1
    64   35   36 ar
    65   35   63 1
    66   36   37 ar
    67   36   64 1
    68   37   38 1
