AVX38672_0, 3
##########                 Name:           AVX38672_0
##########          Protonation:                  100
##########               SMILES:   CC(C)(C)NC(=O)[C@H](c1ccccc1)NC(=O)N(C)Cc2ccc3c(c2C(=O)[O-])OCO3
##########            Long Name:   1-phenyl-ethyl]carbamoyl-methyl-amino]methyl]-1,3-benzodioxole-4-carboxylate
##########          FlexRecCode: 1
##########               Number:                   52
##########   Ligand Source File: /raid1/people/rgc/Examples/sampl4/screening/ligands/build_1//sampl4-hivint-00000
##########           GlobalRank: 110
##########                 Rank:                    1
##########               Setnum:                    8
##########             Matchnum:                 4360
##########                Cloud:                    1
##########        Electrostatic:           -21.052599
##########        Van der Waals:           -20.855047
##########  Ligand Polar Desolv:            13.577153
########## Ligand Apolar Desolv:            -2.311022
##########      Internal Energy:             0.000000
##########      Receptor Energy: 0.0
########## Receptor Desolvation:             0.000000
########## Receptor Hydrophobic:             0.000000
##########         Total Energy: -30.64
##########        Ligand Charge:            -1.000000
##########            Arbitrary:    +999.9990
##########     heavy atom count:   32
##########           pose count:    1
##########        Ligand Energy:             0.000000
# num electro vdwattr vdwrepu polsolv apolsol rdesolv rhydroe totalscore fullpol fullapo
#   1    1.11   -0.48    0.04   -0.16   -0.12    0.00    0.00       0.40   -0.66   -0.51
#   2   -9.06   -0.54    0.02    2.19    0.25    0.00    0.00      -7.14   10.49    1.19
#   3    1.34   -0.22    0.01   -0.72   -0.04    0.00    0.00       0.37   -5.47   -0.31
#   4   -0.19   -0.16    0.00    0.07   -0.02    0.00    0.00      -0.30    1.31   -0.41
#   5   -0.14   -0.13    0.00    0.06   -0.02    0.00    0.00      -0.22    1.40   -0.42
#   6   -0.11   -0.06    0.00    0.01   -0.01    0.00    0.00      -0.17    0.56   -0.47
#   7    0.00   -0.05    0.00   -0.01   -0.01    0.00    0.00      -0.06   -0.26   -0.33
#   8   -0.30   -0.02    0.00    0.06    0.01    0.00    0.00      -0.25    4.80    0.52
#   9    0.18   -0.02    0.00   -0.04    0.00    0.00    0.00       0.12   -2.97    0.02
#  10   -0.31   -0.04    0.00    0.20    0.01    0.00    0.00      -0.15    9.21    0.34
#  11    0.10   -0.07    0.00   -0.02   -0.01    0.00    0.00       0.00   -0.81   -0.32
#  12   -0.38   -0.13    0.00    0.34   -0.02    0.00    0.00      -0.19    6.42   -0.41
#  13    2.48   -0.28    0.02   -2.02   -0.02    0.00    0.00       0.18  -18.37   -0.17
#  14   -5.49   -0.26    0.01    3.63   -0.04    0.00    0.00      -2.15   28.00   -0.33
#  15   -1.74   -0.69    0.20    5.07   -0.09    0.00    0.00       2.75   31.30   -0.56
#  16   15.84   -0.91    0.11   -3.12   -0.50    0.00    0.00      11.43  -12.09   -1.92
#  17  -21.47   -2.03    1.45    4.96    0.12    0.00    0.00     -16.95   14.70    0.37
#  18  -12.55   -0.81    0.07    2.35    0.47    0.00    0.00     -10.48    8.50    1.69
#  19    3.80   -0.81    0.12   -0.75   -0.09    0.00    0.00       2.26   -2.01   -0.25
#  20   12.48   -1.06    0.09   -1.94   -0.21    0.00    0.00       9.36   -5.08   -0.55
#  21  -14.68   -1.42    0.16    3.15    0.13    0.00    0.00     -12.66    6.86    0.29
#  22  -14.72   -0.78    0.06    1.20    0.55    0.00    0.00     -13.70    4.31    1.96
#  23    3.49   -0.52    0.03   -0.25   -0.04    0.00    0.00       2.71   -0.84   -0.12
#  24   -2.17   -1.79    0.97    0.44   -0.06    0.00    0.00      -2.62    1.10   -0.16
#  25   -2.35   -0.39    0.02    0.06   -0.04    0.00    0.00      -2.70    0.25   -0.17
#  26   -5.47   -0.66    0.08    0.27   -0.05    0.00    0.00      -5.83    0.90   -0.16
#  27   -1.12   -1.68    0.67    0.45   -0.13    0.00    0.00      -1.82    1.11   -0.33
#  28   -0.78   -2.75    1.25    0.51   -0.21    0.00    0.00      -1.98    1.07   -0.44
#  29   -0.30   -3.33    1.34    0.49   -0.27    0.00    0.00      -2.06    0.87   -0.47
#  30   -0.35   -2.63    1.40    0.39   -0.26    0.00    0.00      -1.44    0.72   -0.47
#  31   -0.64   -1.90    1.38    0.35   -0.20    0.00    0.00      -1.01    0.80   -0.47
#  32   -0.87   -1.67    1.09    0.38   -0.17    0.00    0.00      -1.25    1.00   -0.45
#  33    1.41   -0.29    0.06   -0.19   -0.06    0.00    0.00       0.92   -0.82   -0.28
#  34    0.60   -0.09    0.01   -0.07   -0.02    0.00    0.00       0.43   -0.96   -0.22
#  35    0.58   -0.14    0.01   -0.12   -0.04    0.00    0.00       0.28   -0.90   -0.28
#  36    0.79   -0.07    0.00   -0.06   -0.02    0.00    0.00       0.65   -0.89   -0.23
#  37    0.46   -0.09    0.00   -0.15   -0.02    0.00    0.00       0.20   -1.82   -0.24
#  38    0.15   -0.04    0.00   -0.08   -0.01    0.00    0.00       0.02   -2.62   -0.21
#  39    0.12   -0.01    0.00   -0.03    0.00    0.00    0.00       0.08   -2.31   -0.28
#  40    0.09   -0.01    0.00   -0.02    0.00    0.00    0.00       0.06   -2.37   -0.28
#  41    0.06    0.00    0.00   -0.01    0.00    0.00    0.00       0.05   -1.65   -0.28
#  42    4.63   -0.01    0.00   -0.58    0.05    0.00    0.00       4.09   -4.31    0.37
#  43    3.12   -0.53    0.43   -0.43   -0.09    0.00    0.00       2.50   -1.21   -0.26
#  44    6.75   -0.01    0.00   -0.22    0.07    0.00    0.00       6.59   -1.76    0.55
#  45    0.55   -0.57    0.23   -0.13   -0.10    0.00    0.00       0.00   -0.37   -0.28
#  46    1.05   -0.76    0.72   -0.17   -0.10    0.00    0.00       0.74   -0.48   -0.28
#  47    0.52   -0.89    0.65   -0.10   -0.09    0.00    0.00       0.10   -0.24   -0.22
#  48    0.79   -0.10    0.00   -0.01   -0.03    0.00    0.00       0.65   -0.11   -0.28
#  49    0.73   -0.15    0.01   -0.02   -0.05    0.00    0.00       0.53   -0.11   -0.28
#  50    1.14   -0.11    0.02   -0.01   -0.03    0.00    0.00       1.02   -0.13   -0.28
#  51    2.27   -0.17    0.01   -0.04   -0.04    0.00    0.00       2.03   -0.24   -0.22
#  52    2.63   -0.32    0.21   -0.08   -0.06    0.00    0.00       2.38   -0.40   -0.28
#  53    2.15   -0.32    0.11   -0.07   -0.06    0.00    0.00       1.81   -0.33   -0.28
#  54    1.24   -0.88    1.03   -0.40   -0.12    0.00    0.00       0.87   -0.93   -0.27
#  55   -0.16   -0.98    0.48   -0.44   -0.17    0.00    0.00      -1.26   -0.71   -0.28
#  56    0.11   -0.62    0.42   -0.24   -0.12    0.00    0.00      -0.45   -0.58   -0.28
#  57    0.54   -0.23    0.03   -0.14   -0.06    0.00    0.00       0.15   -0.68   -0.28
#  58    0.95   -0.22    0.03   -0.24   -0.07    0.00    0.00       0.46   -0.97   -0.28

@<TRIPOS>MOLECULE
       AVX38672_0       100
   58    60     0     0     0



@<TRIPOS>ATOM
      1 C1         14.7778   -17.5695    10.0915 C.3        1           0.0769
      2 N1         16.2158   -17.8495    10.0812 N.am       1          -0.6275
      3 C2         17.1652   -16.8221    10.5162 C.3        1           0.1940
      4 C3         16.5141   -15.9430    11.5526 C.ar       1          -0.0518
      5 C4         15.8208   -14.8183    11.1643 C.ar       1          -0.1211
      6 C5         15.2188   -14.0037    12.1103 C.ar       1          -0.1017
      7 C6         15.3074   -14.3121    13.4558 C.ar       1          -0.0028
      8 O1         14.8210   -13.6988    14.5716 O.3        1          -0.3193
      9 C7         15.5900   -14.1960    15.6773 C.3        1           0.2047
     10 O2         15.9360   -15.5124    15.2212 O.3        1          -0.2769
     11 C8         16.0049   -15.4469    13.8654 C.ar       1           0.0772
     12 C9         16.6091   -16.2726    12.9098 C.ar       1          -0.1202
     13 C10        17.3438   -17.4767    13.3299 C.2        1           0.5221
     14 O3         16.7590   -18.5469    13.4284 O.co2      1          -0.6799
     15 O4         18.5392   -17.4076    13.5805 O.co2      1          -0.6711
     16 C11        16.6651   -19.0523     9.6715 C.2        1           0.7080
     17 O5         15.8769   -19.9049     9.3105 O.2        1          -0.5763
     18 N2         17.9879   -19.3099     9.6619 N.am       1          -0.7306
     19 C12        18.4763   -20.6174     9.2165 C.3        1           0.1879
     20 C13        17.9017   -21.6956    10.0989 C.2        1           0.5245
     21 O6         17.7026   -22.8045     9.6500 O.2        1          -0.5262
     22 N3         17.6093   -21.4275    11.3869 N.am       1          -0.7163
     23 C14        17.0508   -22.4755    12.2447 C.3        1           0.1695
     24 C15        18.0327   -23.6462    12.3246 C.3        1          -0.1653
     25 C16        16.8123   -21.9132    13.6475 C.3        1          -0.1560
     26 C17        15.7241   -22.9618    11.6579 C.3        1          -0.1633
     27 C18        19.9806   -20.6474     9.3016 C.ar       1          -0.0942
     28 C19        20.6357   -21.8408     9.5414 C.ar       1          -0.0950
     29 C20        22.0156   -21.8683     9.6194 C.ar       1          -0.1185
     30 C21        22.7403   -20.7024     9.4573 C.ar       1          -0.1158
     31 C22        22.0853   -19.5092     9.2166 C.ar       1          -0.1174
     32 C23        20.7057   -19.4825     9.1343 C.ar       1          -0.1025
     33 H1         14.2346   -18.4457     9.7375 H          1           0.0572
     34 H2         14.4612   -17.3314    11.1070 H          1           0.0602
     35 H3         14.5678   -16.7231     9.4376 H          1           0.0774
     36 H4         18.0457   -17.2998    10.9462 H          1           0.1137
     37 H5         17.4623   -16.2161     9.6603 H          1           0.1065
     38 H6         15.7461   -14.5691    10.1161 H          1           0.1243
     39 H7         14.6781   -13.1235    11.7954 H          1           0.1223
     40 H8         16.4825   -13.5907    15.8354 H          1           0.1233
     41 H9         14.9857   -14.2429    16.5831 H          1           0.0744
     42 H10        18.6167   -18.6298     9.9499 H          1           0.4043
     43 H11        18.1673   -20.7888     8.1854 H          1           0.1213
     44 H12        17.7684   -20.5404    11.7460 H          1           0.4014
     45 H13        17.6172   -24.4260    12.9628 H          1           0.0550
     46 H14        18.2025   -24.0468    11.3253 H          1           0.0626
     47 H15        18.9778   -23.2999    12.7427 H          1           0.0793
     48 H16        16.3969   -22.6930    14.2857 H          1           0.0625
     49 H17        17.7576   -21.5668    14.0656 H          1           0.0736
     50 H18        16.1129   -21.0792    13.5906 H          1           0.0629
     51 H19        15.3087   -23.7415    12.2961 H          1           0.0785
     52 H20        15.0246   -22.1278    11.6011 H          1           0.0621
     53 H21        15.8939   -23.3623    10.6585 H          1           0.0542
     54 H22        20.0694   -22.7518     9.6681 H          1           0.1183
     55 H23        22.5273   -22.8006     9.8075 H          1           0.1215
     56 H24        23.8184   -20.7237     9.5189 H          1           0.1206
     57 H25        22.6516   -18.5983     9.0901 H          1           0.1231
     58 H26        20.1941   -18.5508     8.9425 H          1           0.1241
@<TRIPOS>BOND
     1    1    2 1
     2    1   33 1
     3    1   34 1
     4    1   35 1
     5    2    3 1
     6    2   16 am
     7    3    4 1
     8    3   36 1
     9    3   37 1
    10    4   12 ar
    11    4    5 ar
    12    5    6 ar
    13    5   38 1
    14    6    7 ar
    15    6   39 1
    16    7   11 ar
    17    7    8 1
    18    8    9 1
    19    9   10 1
    20    9   40 1
    21    9   41 1
    22   10   11 1
    23   11   12 ar
    24   12   13 1
    25   13   14 1
    26   13   15 2
    27   16   17 2
    28   16   18 am
    29   18   19 1
    30   18   42 1
    31   19   20 1
    32   19   27 1
    33   19   43 1
    34   20   21 2
    35   20   22 am
    36   22   23 1
    37   22   44 1
    38   23   24 1
    39   23   25 1
    40   23   26 1
    41   24   45 1
    42   24   46 1
    43   24   47 1
    44   25   48 1
    45   25   49 1
    46   25   50 1
    47   26   51 1
    48   26   52 1
    49   26   53 1
    50   27   32 ar
    51   27   28 ar
    52   28   29 ar
    53   28   54 1
    54   29   30 ar
    55   29   55 1
    56   30   31 ar
    57   30   56 1
    58   31   32 ar
    59   31   57 1
    60   32   58 1
