AVX38784_5, 3
##########                 Name:           AVX38784_0
##########          Protonation:                   77
##########               SMILES:   [C@@H](C)NC(=O)c1ccccc1C[NH+](C)Cc2ccc3c(c2C(=O)[O-])OC[C@@H](O3)CCC(=O)[O-]
##########            Long Name:   ]methyl]-2-(3-oxido-3-oxo-propyl)-2,3-dihydro-1,4-benzodioxine-5-carboxylate
##########          FlexRecCode: 1
##########               Number:                  207
##########   Ligand Source File: /raid1/people/rgc/Examples/sampl4/screening/ligands/build_1//sampl4-hivint-00000
##########           GlobalRank: 84
##########                 Rank:                    1
##########               Setnum:                   20
##########             Matchnum:                 8354
##########                Cloud:                    1
##########        Electrostatic:           -53.395752
##########        Van der Waals:            -4.342949
##########  Ligand Polar Desolv:            24.116880
########## Ligand Apolar Desolv:            -2.287874
##########      Internal Energy:             0.000000
##########      Receptor Energy: 0.0
########## Receptor Desolvation:             0.000000
########## Receptor Hydrophobic:             0.000000
##########         Total Energy: -35.91
##########        Ligand Charge:            -1.000000
##########            Arbitrary:    +999.9990
##########     heavy atom count:   35
##########           pose count:    1
##########        Ligand Energy:             0.000000
# num electro vdwattr vdwrepu polsolv apolsol rdesolv rhydroe totalscore fullpol fullapo
#   1   -0.26   -0.06    0.00    0.01   -0.01    0.00    0.00      -0.32    0.15   -0.20
#   2   -0.18   -0.04    0.00    0.00   -0.01    0.00    0.00      -0.23   -0.12   -0.24
#   3    0.17   -0.05    0.00    0.00   -0.01    0.00    0.00       0.12   -0.13   -0.25
#   4   -0.17   -0.04    0.00    0.00   -0.01    0.00    0.00      -0.22    0.04   -0.19
#   5   -0.70   -0.05    0.00    0.00    0.04    0.00    0.00      -0.71   -0.01    1.82
#   6    0.50   -0.08    0.00   -0.04   -0.02    0.00    0.00       0.36   -1.26   -0.64
#   7   -0.53   -0.13    0.00    0.17    0.02    0.00    0.00      -0.48    3.02    0.32
#   8   -0.09   -0.10    0.00    0.00   -0.02    0.00    0.00      -0.20    0.13   -0.41
#   9   -0.05   -0.09    0.00    0.00   -0.01    0.00    0.00      -0.16   -0.12   -0.44
#  10   -0.07   -0.22    0.01   -0.01   -0.04    0.00    0.00      -0.33   -0.18   -0.47
#  11   -0.04   -0.36    0.02    0.00   -0.06    0.00    0.00      -0.43    0.02   -0.47
#  12   -0.10   -0.25    0.01    0.01   -0.03    0.00    0.00      -0.36    0.14   -0.34
#  13   -0.04   -0.16    0.00    0.00   -0.02    0.00    0.00      -0.22    0.07   -0.39
#  14    0.05   -0.18    0.01   -0.01   -0.03    0.00    0.00      -0.16   -0.06   -0.26
#  15   -1.06   -0.38    0.03    0.01    0.03    0.00    0.00      -1.37    0.07    0.16
#  16    1.39   -0.01    0.00   -0.15    0.03    0.00    0.00       1.27   -1.94    0.33
#  17   -0.17   -0.63    0.21   -0.08   -0.09    0.00    0.00      -0.75   -0.37   -0.41
#  18    0.26   -0.62    0.16   -0.04   -0.07    0.00    0.00      -0.32   -0.17   -0.29
#  19   -1.45   -0.76    0.08    0.09   -0.08    0.00    0.00      -2.12    0.34   -0.30
#  20   -1.69   -1.26    0.19   -0.04   -0.14    0.00    0.00      -2.94   -0.11   -0.40
#  21   -2.53   -1.27    0.22    0.30   -0.17    0.00    0.00      -3.46    0.80   -0.46
#  22    1.52   -0.83    0.06    0.01   -0.09    0.00    0.00       0.68    0.04   -0.30
#  23   -7.81   -0.78    0.04    2.24    0.22    0.00    0.00      -6.09    6.34    0.62
#  24    1.42   -0.53    0.04   -0.43   -0.03    0.00    0.00       0.47   -1.59   -0.12
#  25   -1.94   -0.70    0.05    0.48   -0.06    0.00    0.00      -2.18    1.38   -0.18
#  26   -4.42   -0.69    0.08    1.20   -0.08    0.00    0.00      -3.90    3.62   -0.24
#  27   19.56   -1.72    0.52   -6.11   -0.06    0.00    0.00      12.18  -15.63   -0.16
#  28  -35.02   -4.39    9.80   12.59   -0.18    0.00    0.00     -17.20   28.38   -0.41
#  29  -32.98   -4.49    9.21   11.64   -0.16    0.00    0.00     -16.79   30.62   -0.43
#  30    0.36   -0.39    0.04   -0.10   -0.03    0.00    0.00      -0.12   -0.48   -0.12
#  31   -4.84   -0.43    0.04    1.40    0.05    0.00    0.00      -3.78    8.01    0.27
#  32    1.66   -0.59    0.06   -0.08   -0.06    0.00    0.00       0.99   -0.40   -0.30
#  33   -1.58   -0.53    0.06    0.59   -0.07    0.00    0.00      -1.53    3.35   -0.40
#  34    3.83   -0.31    0.02   -1.43   -0.02    0.00    0.00       2.10  -12.21   -0.15
#  35   -2.71   -0.38    0.04    1.98   -0.04    0.00    0.00      -1.10   14.90   -0.30
#  36   -4.02   -0.18    0.00    1.87   -0.05    0.00    0.00      -2.36   24.50   -0.59
#  37    0.09   -0.01    0.00    0.00    0.00    0.00    0.00       0.08   -0.04   -0.28
#  38    0.14   -0.03    0.00    0.00   -0.01    0.00    0.00       0.09   -0.08   -0.28
#  39    0.07   -0.01    0.00    0.00    0.00    0.00    0.00       0.06   -0.05   -0.26
#  40    0.12   -0.02    0.00    0.00    0.00    0.00    0.00       0.10    0.10   -0.28
#  41    0.07    0.00    0.00    0.00    0.00    0.00    0.00       0.07    0.27   -0.28
#  42    0.14   -0.02    0.00    0.00   -0.01    0.00    0.00       0.11   -0.19   -0.26
#  43    0.06   -0.02    0.00    0.00    0.00    0.00    0.00       0.04    0.08   -0.28
#  44    0.07   -0.02    0.00    0.00   -0.01    0.00    0.00       0.05   -0.05   -0.28
#  45    0.06    0.00    0.00    0.00    0.00    0.00    0.00       0.05    0.00   -0.28
#  46    0.35    0.00    0.00    0.01    0.00    0.00    0.00       0.37    1.28    0.45
#  47    0.09   -0.01    0.00    0.01    0.00    0.00    0.00       0.09    0.83   -0.22
#  48    0.06   -0.06    0.00    0.03   -0.01    0.00    0.00       0.03    0.64   -0.28
#  49    0.07   -0.13    0.01    0.02   -0.04    0.00    0.00      -0.07    0.16   -0.28
#  50    0.09   -0.05    0.00    0.00   -0.01    0.00    0.00       0.03   -0.06   -0.18
#  51    0.13   -0.05    0.00   -0.02   -0.01    0.00    0.00       0.05   -0.44   -0.26
#  52    0.12   -0.07    0.00    0.03   -0.02    0.00    0.00       0.07    0.39   -0.23
#  53    0.54   -0.59    1.35    0.39   -0.06    0.00    0.00       1.62    1.74   -0.28
#  54    0.28   -0.14    0.01    0.11   -0.03    0.00    0.00       0.24    0.76   -0.18
#  55    0.11   -0.19    0.05    0.08   -0.04    0.00    0.00       0.01    0.49   -0.23
#  56    0.57   -0.19    0.04   -0.10   -0.03    0.00    0.00       0.29   -0.66   -0.20
#  57    0.16   -0.51    0.67    0.20   -0.06    0.00    0.00       0.47    0.91   -0.27
#  58    1.62   -0.39    0.09    0.30   -0.10    0.00    0.00       1.51    0.84   -0.28
#  59    3.05   -0.38    0.12   -0.43   -0.10    0.00    0.00       2.25   -1.25   -0.28
#  60    3.37   -0.25    0.07   -0.30   -0.05    0.00    0.00       2.83   -1.64   -0.28
#  61    2.01   -0.29    0.03   -0.39   -0.08    0.00    0.00       1.29   -1.30   -0.28
#  62    1.23   -0.28    0.04   -0.50   -0.07    0.00    0.00       0.41   -1.98   -0.28
#  63    0.85   -0.44    0.34   -0.58   -0.07    0.00    0.00       0.09   -2.29   -0.28
#  64    1.35   -0.14    0.01   -0.30   -0.04    0.00    0.00       0.89   -2.23   -0.27
#  65    2.47   -0.12    0.03   -0.27   -0.03    0.00    0.00       2.08   -2.65   -0.28
#  66    0.99   -0.14    0.01   -0.26   -0.05    0.00    0.00       0.56   -1.58   -0.28

@<TRIPOS>MOLECULE
       AVX38784_0        77
   66    68     0     0     0



@<TRIPOS>ATOM
      1 C1         14.1557   -15.7004    14.0792 C.3        1          -0.1557
      2 C2         13.5974   -14.5393    13.2540 C.3        1          -0.1324
      3 C3         14.5403   -14.2443    12.0856 C.3        1           0.1390
      4 C4         13.9819   -13.0831    11.2605 C.3        1          -0.1645
      5 N1         15.8622   -13.8837    12.6040 N.am       1          -0.7152
      6 C5         16.9671   -14.1605    11.8835 C.2        1           0.5601
      7 O1         16.8666   -14.7094    10.8035 O.2        1          -0.5339
      8 C6         18.3011   -13.7966    12.4064 C.ar       1          -0.1211
      9 C7         18.4204   -13.1713    13.6488 C.ar       1          -0.0741
     10 C8         19.6681   -12.8349    14.1313 C.ar       1          -0.1169
     11 C9         20.8000   -13.1154    13.3863 C.ar       1          -0.0710
     12 C10        20.6888   -13.7347    12.1544 C.ar       1          -0.1430
     13 C11        19.4471   -14.0818    11.6628 C.ar       1          -0.0526
     14 C12        19.3283   -14.7617    10.3232 C.3        1           0.0510
     15 N2         19.3837   -16.2182    10.5068 N.4        1          -0.3733
     16 H1         18.8588   -16.4737    11.3299 H          1           0.4293
     17 C13        20.7820   -16.6387    10.6675 C.3        1          -0.0634
     18 C14        18.8047   -16.8823     9.3313 C.3        1           0.0590
     19 C15        18.4081   -18.2902     9.6942 C.ar       1          -0.1331
     20 C16        18.7236   -19.3337     8.8527 C.ar       1          -0.1129
     21 C17        18.3634   -20.6303     9.1801 C.ar       1          -0.1202
     22 C18        17.6815   -20.8939    10.3578 C.ar       1           0.0660
     23 O2         17.3450   -22.1777    10.6615 O.3        1          -0.2954
     24 C19        16.3396   -22.3589    11.6646 C.3        1           0.0487
     25 C20        16.3339   -23.8159    12.1318 C.3        1          -0.0829
     26 C21        14.9934   -24.1325    12.7979 C.3        1          -0.1808
     27 C22        13.8775   -23.9181    11.8081 C.2        1           0.4906
     28 O3         13.8502   -24.5596    10.7717 O.co2      1          -0.6998
     29 O4         13.0021   -23.1028    12.0437 O.co2      1          -0.7061
     30 C23        16.6688   -21.4375    12.8470 C.3        1           0.0180
     31 O5         16.6812   -20.0868    12.3725 O.3        1          -0.2585
     32 C24        17.3535   -19.8519    11.2166 C.ar       1           0.0885
     33 C25        17.7242   -18.5391    10.8890 C.ar       1          -0.1257
     34 C26        17.3900   -17.4283    11.7949 C.2        1           0.5226
     35 O6         18.1751   -17.0977    12.6729 O.co2      1          -0.7091
     36 O7         16.3270   -16.8356    11.6699 O.co2      1          -0.6286
     37 H2         13.4840   -15.9105    14.9115 H          1           0.0582
     38 H3         14.2415   -16.5856    13.4491 H          1           0.0582
     39 H4         15.1393   -15.4322    14.4648 H          1           0.0545
     40 H5         12.6138   -14.8075    12.8683 H          1           0.0814
     41 H6         13.5116   -13.6539    13.8841 H          1           0.0678
     42 H7         14.6260   -15.1296    11.4556 H          1           0.0938
     43 H8         14.6536   -12.8729    10.4281 H          1           0.0567
     44 H9         12.9984   -13.3514    10.8748 H          1           0.0616
     45 H10        13.8961   -12.1978    11.8905 H          1           0.0684
     46 H11        15.9424   -13.4459    13.4658 H          1           0.3999
     47 H12        17.5376   -12.9512    14.2309 H          1           0.1329
     48 H13        19.7617   -12.3511    15.0923 H          1           0.1375
     49 H14        21.7744   -12.8491    13.7682 H          1           0.1390
     50 H15        21.5761   -13.9506    11.5778 H          1           0.1295
     51 H16        18.3796   -14.4897     9.8605 H          1           0.1506
     52 H17        20.1499   -14.4451     9.6809 H          1           0.1472
     53 H18        20.8229   -17.7196    10.8038 H          1           0.1167
     54 H19        21.3488   -16.3630     9.7783 H          1           0.1160
     55 H20        21.2115   -16.1461    11.5397 H          1           0.1218
     56 H21        17.9248   -16.3312     8.9992 H          1           0.1658
     57 H22        19.5417   -16.9079     8.5287 H          1           0.1107
     58 H23        19.2544   -19.1398     7.9324 H          1           0.1286
     59 H24        18.6151   -21.4415     8.5130 H          1           0.1365
     60 H25        15.3625   -22.0998    11.2569 H          1           0.0829
     61 H26        16.4777   -24.4731    11.2742 H          1           0.0740
     62 H27        17.1410   -23.9710    12.8478 H          1           0.0869
     63 H28        14.9893   -25.1705    13.1307 H          1           0.0565
     64 H29        14.8496   -23.4755    13.6556 H          1           0.0636
     65 H30        15.9099   -21.5481    13.6216 H          1           0.1243
     66 H31        17.6479   -21.6941    13.2516 H          1           0.0756
@<TRIPOS>BOND
     1    1    2 1
     2    1   37 1
     3    1   38 1
     4    1   39 1
     5    2    3 1
     6    2   40 1
     7    2   41 1
     8    3    4 1
     9    3    5 1
    10    3   42 1
    11    4   43 1
    12    4   44 1
    13    4   45 1
    14    5    6 am
    15    5   46 1
    16    6    7 2
    17    6    8 1
    18    8   13 ar
    19    8    9 ar
    20    9   10 ar
    21    9   47 1
    22   10   11 ar
    23   10   48 1
    24   11   12 ar
    25   11   49 1
    26   12   13 ar
    27   12   50 1
    28   13   14 1
    29   14   15 1
    30   14   51 1
    31   14   52 1
    32   15   16 1
    33   15   17 1
    34   15   18 1
    35   17   53 1
    36   17   54 1
    37   17   55 1
    38   18   19 1
    39   18   56 1
    40   18   57 1
    41   19   33 ar
    42   19   20 ar
    43   20   21 ar
    44   20   58 1
    45   21   22 ar
    46   21   59 1
    47   22   32 ar
    48   22   23 1
    49   23   24 1
    50   24   25 1
    51   24   30 1
    52   24   60 1
    53   25   26 1
    54   25   61 1
    55   25   62 1
    56   26   27 1
    57   26   63 1
    58   26   64 1
    59   27   28 1
    60   27   29 2
    61   30   31 1
    62   30   65 1
    63   30   66 1
    64   31   32 1
    65   32   33 ar
    66   33   34 1
    67   34   35 1
    68   34   36 2
