AVX38708_1, 3
##########                 Name:           AVX38708_0
##########          Protonation:                   24
##########               SMILES:   CN(Cc1ccccc1C(=O)NCc2ccccc2)Cc3ccc4c(c3C(=O)[O-])OCO4
##########            Long Name:   lcarbamoyl)phenyl]methyl-methyl-amino]methyl]-1,3-benzodioxole-4-carboxylate
##########          FlexRecCode: 1
##########               Number:                  125
##########   Ligand Source File: /raid1/people/rgc/Examples/sampl4/screening/ligands/build_1//sampl4-hivint-00000
##########           GlobalRank: 57
##########                 Rank:                    1
##########               Setnum:                  100
##########             Matchnum:                 5319
##########                Cloud:                    1
##########        Electrostatic:           -39.255459
##########        Van der Waals:           -17.463743
##########  Ligand Polar Desolv:            18.673351
########## Ligand Apolar Desolv:            -1.992902
##########      Internal Energy:             0.000000
##########      Receptor Energy: 0.0
########## Receptor Desolvation:             0.000000
########## Receptor Hydrophobic:             0.000000
##########         Total Energy: -40.04
##########        Ligand Charge:            -1.000000
##########            Arbitrary:    +999.9990
##########     heavy atom count:   32
##########           pose count:    1
##########        Ligand Energy:             0.000000
# num electro vdwattr vdwrepu polsolv apolsol rdesolv rhydroe totalscore fullpol fullapo
#   1    0.11   -0.18    0.02   -0.04   -0.05    0.00    0.00      -0.14   -0.34   -0.43
#   2   -3.19   -0.39    0.04    1.32    0.26    0.00    0.00      -1.95    9.75    1.96
#   3    0.25   -0.14    0.01   -0.16   -0.03    0.00    0.00      -0.07   -1.76   -0.31
#   4   -0.01   -0.50    0.12    0.09   -0.04    0.00    0.00      -0.34    0.66   -0.32
#   5   -0.12   -0.45    0.07    0.16   -0.06    0.00    0.00      -0.40    1.16   -0.42
#   6   -0.08   -0.58    0.10    0.05   -0.08    0.00    0.00      -0.59    0.28   -0.47
#   7   -0.10   -1.14    0.53    0.06   -0.11    0.00    0.00      -0.76    0.26   -0.47
#   8   -0.07   -1.92    2.09    0.10   -0.11    0.00    0.00       0.09    0.38   -0.44
#   9   -0.09   -1.01    0.71    0.31   -0.08    0.00    0.00      -0.16    1.65   -0.41
#  10    0.43   -0.62    0.16   -1.29   -0.11    0.00    0.00      -1.43   -7.73   -0.65
#  11   -0.35   -0.27    0.01    1.50    0.04    0.00    0.00       0.94   12.26    0.31
#  12   -0.58   -0.89    0.43    1.26    0.41    0.00    0.00       0.63    7.10    2.32
#  13    0.12   -0.20    0.01   -0.23   -0.05    0.00    0.00      -0.35   -2.04   -0.44
#  14   -0.06   -0.42    0.03    0.16   -0.06    0.00    0.00      -0.35    1.03   -0.37
#  15   -0.05   -0.23    0.01    0.07   -0.04    0.00    0.00      -0.24    0.87   -0.45
#  16   -0.05   -0.35    0.04    0.07   -0.05    0.00    0.00      -0.34    0.64   -0.47
#  17   -0.04   -0.72    0.12    0.08   -0.08    0.00    0.00      -0.64    0.47   -0.47
#  18   -0.05   -1.27    0.26    0.18   -0.13    0.00    0.00      -1.01    0.66   -0.47
#  19   -0.06   -1.08    0.23    0.24   -0.12    0.00    0.00      -0.79    0.90   -0.45
#  20    1.34   -0.35    0.06   -0.70   -0.05    0.00    0.00       0.30   -4.31   -0.28
#  21   -0.41   -0.75    0.19    0.21   -0.08    0.00    0.00      -0.85    0.97   -0.39
#  22   -1.14   -1.77    1.55    0.38   -0.11    0.00    0.00      -1.08    1.31   -0.38
#  23   -0.98   -2.06    0.63    0.24   -0.17    0.00    0.00      -2.33    0.69   -0.47
#  24   -0.11   -1.54    0.30   -0.09   -0.12    0.00    0.00      -1.55   -0.25   -0.33
#  25   -4.39   -2.79    1.97    2.20    0.22    0.00    0.00      -2.80    5.14    0.52
#  26    4.96   -1.62    0.62   -1.44    0.01    0.00    0.00       2.52   -3.16    0.02
#  27   -9.58   -1.20    0.24    3.59    0.12    0.00    0.00      -6.83    9.83    0.34
#  28    1.83   -0.86    0.05   -0.23   -0.10    0.00    0.00       0.70   -0.74   -0.32
#  29   -3.17   -0.67    0.05    1.64   -0.09    0.00    0.00      -2.24    7.17   -0.41
#  30   18.21   -1.26    0.56   -5.23   -0.05    0.00    0.00      12.24  -19.41   -0.17
#  31  -29.14   -2.47    3.03    8.90   -0.10    0.00    0.00     -19.77   29.95   -0.33
#  32  -23.44   -1.60    0.59   10.62   -0.18    0.00    0.00     -14.02   32.86   -0.56
#  33    0.22   -0.07    0.01   -0.02   -0.02    0.00    0.00       0.12   -0.34   -0.28
#  34    0.21   -0.03    0.00   -0.02   -0.01    0.00    0.00       0.15   -0.86   -0.22
#  35    0.30   -0.08    0.02   -0.12   -0.02    0.00    0.00       0.10   -1.42   -0.24
#  36    0.39   -0.02    0.00   -0.03    0.00    0.00    0.00       0.33   -1.25   -0.20
#  37    0.05   -0.02    0.00   -0.01   -0.01    0.00    0.00       0.01   -0.45   -0.27
#  38    0.39   -0.05    0.00   -0.06   -0.01    0.00    0.00       0.27   -1.10   -0.28
#  39    0.13   -0.07    0.00   -0.02   -0.02    0.00    0.00       0.02   -0.29   -0.28
#  40    0.08   -0.20    0.02    0.00   -0.06    0.00    0.00      -0.15    0.00   -0.28
#  41    0.08   -0.68    0.67   -0.16   -0.07    0.00    0.00      -0.15   -0.48   -0.22
#  42    0.33   -0.04    0.00   -0.52    0.08    0.00    0.00      -0.14   -2.66    0.43
#  43    0.05   -0.05    0.00   -0.03   -0.01    0.00    0.00      -0.04   -0.57   -0.28
#  44    0.06   -0.03    0.00   -0.01   -0.01    0.00    0.00       0.02   -0.66   -0.28
#  45    0.07   -0.02    0.00   -0.02    0.00    0.00    0.00       0.03   -0.89   -0.28
#  46    0.05   -0.04    0.00   -0.02   -0.01    0.00    0.00      -0.02   -0.46   -0.28
#  47    0.03   -0.13    0.02   -0.04   -0.03    0.00    0.00      -0.16   -0.30   -0.28
#  48    0.15   -0.51    0.26   -0.14   -0.08    0.00    0.00      -0.31   -0.49   -0.28
#  49    0.07   -0.44    0.28   -0.27   -0.08    0.00    0.00      -0.44   -0.89   -0.28
#  50    1.00   -0.06    0.00   -0.01   -0.01    0.00    0.00       0.91   -0.14   -0.22
#  51    0.81   -0.17    0.07   -0.08   -0.03    0.00    0.00       0.61   -0.57   -0.25
#  52    1.02   -0.58    0.77   -0.85   -0.06    0.00    0.00       0.29   -3.17   -0.22
#  53    0.66   -0.94    0.87   -1.09   -0.12    0.00    0.00      -0.63   -2.56   -0.28
#  54    2.75   -1.00    1.62   -1.07   -0.12    0.00    0.00       2.19   -2.53   -0.28
#  55    1.83   -0.46    0.09   -0.78   -0.12    0.00    0.00       0.56   -1.79   -0.28

@<TRIPOS>MOLECULE
       AVX38708_0        24
   55    58     0     0     0



@<TRIPOS>ATOM
      1 C1         16.2500   -18.7142    14.2276 C.3        1           0.0178
      2 N1         17.4404   -18.1945    13.5418 N.3        1          -0.5264
      3 C2         17.4374   -16.7255    13.5225 C.3        1           0.0878
      4 C3         18.8369   -16.2234    13.2771 C.ar       1          -0.0097
      5 C4         19.2766   -16.0036    11.9878 C.ar       1          -0.1229
      6 C5         20.5610   -15.5427    11.7608 C.ar       1          -0.0967
      7 C6         21.4131   -15.2992    12.8236 C.ar       1          -0.1335
      8 C7         20.9860   -15.5145    14.1174 C.ar       1          -0.0911
      9 C8         19.6894   -15.9743    14.3537 C.ar       1          -0.1141
     10 C9         19.2230   -16.2019    15.7381 C.2        1           0.5512
     11 O1         18.6833   -15.3031    16.3530 O.2        1          -0.4904
     12 N2         19.3961   -17.4061    16.3181 N.am       1          -0.7301
     13 C10        18.9340   -17.6316    17.6899 C.3        1           0.1620
     14 C11        19.8141   -18.6590    18.3540 C.ar       1          -0.1042
     15 C12        19.2931   -19.4887    19.3292 C.ar       1          -0.1015
     16 C13        20.1005   -20.4310    19.9384 C.ar       1          -0.1236
     17 C14        21.4287   -20.5438    19.5721 C.ar       1          -0.1156
     18 C15        21.9494   -19.7146    18.5962 C.ar       1          -0.1226
     19 C16        21.1410   -18.7753    17.9840 C.ar       1          -0.0996
     20 C17        17.5438   -18.7385    12.1812 C.3        1           0.1226
     21 C18        17.6417   -20.2409    12.2472 C.ar       1          -0.0272
     22 C19        18.4789   -20.8370    13.1640 C.ar       1          -0.1135
     23 C20        18.5753   -22.2179    13.2318 C.ar       1          -0.1086
     24 C21        17.8307   -23.0131    12.3793 C.ar       1          -0.0073
     25 O2         17.7358   -24.3651    12.2349 O.3        1          -0.3208
     26 C22        17.1802   -24.5969    10.9317 C.3        1           0.2049
     27 O3         16.3757   -23.4225    10.7462 O.3        1          -0.2788
     28 C23        16.9785   -22.4258    11.4464 C.ar       1           0.0722
     29 C24        16.8772   -21.0310    11.3806 C.ar       1          -0.1265
     30 C25        15.9764   -20.3992    10.4030 C.2        1           0.5222
     31 O4         14.8166   -20.1564    10.7076 O.co2      1          -0.6821
     32 O5         16.3875   -20.1168     9.2858 O.co2      1          -0.6751
     33 H1         16.2774   -19.8039    14.2276 H          1           0.0221
     34 H2         16.2353   -18.3513    15.2554 H          1           0.0680
     35 H3         15.3539   -18.3734    13.7090 H          1           0.0585
     36 H4         16.7805   -16.3739    12.7268 H          1           0.1111
     37 H5         17.0796   -16.3502    14.4813 H          1           0.0348
     38 H6         18.6165   -16.1920    11.1540 H          1           0.1264
     39 H7         20.9003   -15.3725    10.7497 H          1           0.1235
     40 H8         22.4149   -14.9401    12.6396 H          1           0.1237
     41 H9         21.6521   -15.3240    14.9460 H          1           0.1211
     42 H10        19.8267   -18.1235    15.8273 H          1           0.3952
     43 H11        18.9823   -16.6965    18.2479 H          1           0.0800
     44 H12        17.9052   -17.9913    17.6721 H          1           0.0767
     45 H13        18.2555   -19.4005    19.6153 H          1           0.1240
     46 H14        19.6937   -21.0788    20.7008 H          1           0.1223
     47 H15        22.0595   -21.2796    20.0485 H          1           0.1211
     48 H16        22.9871   -19.8026    18.3104 H          1           0.1230
     49 H17        21.5468   -18.1299    17.2190 H          1           0.1257
     50 H18        16.6600   -18.4567    11.6090 H          1           0.0732
     51 H19        18.4337   -18.3374    11.6961 H          1           0.0947
     52 H20        19.0641   -20.2246    13.8338 H          1           0.1419
     53 H21        19.2353   -22.6754    13.9539 H          1           0.1203
     54 H22        17.9649   -24.6555    10.1775 H          1           0.1213
     55 H23        16.5648   -25.4966    10.9242 H          1           0.0723
@<TRIPOS>BOND
     1    1    2 1
     2    1   33 1
     3    1   34 1
     4    1   35 1
     5    2    3 1
     6    2   20 1
     7    3    4 1
     8    3   36 1
     9    3   37 1
    10    4    9 ar
    11    4    5 ar
    12    5    6 ar
    13    5   38 1
    14    6    7 ar
    15    6   39 1
    16    7    8 ar
    17    7   40 1
    18    8    9 ar
    19    8   41 1
    20    9   10 1
    21   10   11 2
    22   10   12 am
    23   12   13 1
    24   12   42 1
    25   13   14 1
    26   13   43 1
    27   13   44 1
    28   14   19 ar
    29   14   15 ar
    30   15   16 ar
    31   15   45 1
    32   16   17 ar
    33   16   46 1
    34   17   18 ar
    35   17   47 1
    36   18   19 ar
    37   18   48 1
    38   19   49 1
    39   20   21 1
    40   20   50 1
    41   20   51 1
    42   21   29 ar
    43   21   22 ar
    44   22   23 ar
    45   22   52 1
    46   23   24 ar
    47   23   53 1
    48   24   28 ar
    49   24   25 1
    50   25   26 1
    51   26   27 1
    52   26   54 1
    53   26   55 1
    54   27   28 1
    55   28   29 ar
    56   29   30 1
    57   30   31 1
    58   30   32 2
