AVX38747_0, 3
##########                 Name:           AVX38747_0
##########          Protonation:                  100
##########               SMILES:   C[C@H]([C@@H]2Cc3ccc4c(c3C(=O)[O-])OC[C@@H](O4)CCC(=O)[O-])NC(=O)CCCCC[NH3+]
##########            Long Name:   ]methyl]-2-(3-oxido-3-oxo-propyl)-2,3-dihydro-1,4-benzodioxine-5-carboxylate
##########          FlexRecCode: 1
##########               Number:                  216
##########   Ligand Source File: /raid1/people/rgc/Examples/sampl4/screening/ligands/build_1//sampl4-hivint-00000
##########           GlobalRank: 96
##########                 Rank:                    1
##########               Setnum:                    3
##########             Matchnum:                 5903
##########                Cloud:                    1
##########        Electrostatic:           -28.715643
##########        Van der Waals:           -20.363159
##########  Ligand Polar Desolv:            18.550133
########## Ligand Apolar Desolv:            -3.844423
##########      Internal Energy:             0.000000
##########      Receptor Energy: 0.0
########## Receptor Desolvation:             0.000000
########## Receptor Hydrophobic:             0.000000
##########         Total Energy: -34.37
##########        Ligand Charge:            -1.000000
##########            Arbitrary:    +999.9990
##########     heavy atom count:   37
##########           pose count:    1
##########        Ligand Energy:             0.000000
# num electro vdwattr vdwrepu polsolv apolsol rdesolv rhydroe totalscore fullpol fullapo
#   1   -3.69   -0.33    0.09   -1.57    0.09    0.00    0.00      -5.40  -14.33    0.86
#   2    1.65   -0.01    0.00    1.32    0.06    0.00    0.00       3.02   12.00    0.58
#   3    5.66   -0.01    0.00    0.88    0.05    0.00    0.00       6.58   10.74    0.58
#   4    2.73    0.00    0.00    0.70    0.03    0.00    0.00       3.46   12.09    0.59
#   5   -0.04   -0.09    0.00    0.03   -0.03    0.00    0.00      -0.14    0.40   -0.49
#   6   -0.48   -0.11    0.00   -0.11   -0.02    0.00    0.00      -0.71   -1.55   -0.24
#   7   -0.81   -0.24    0.02   -0.05   -0.03    0.00    0.00      -1.10   -0.33   -0.22
#   8   -0.48   -0.29    0.02    0.05   -0.03    0.00    0.00      -0.73    0.29   -0.19
#   9   -0.93   -0.85    0.21    0.30   -0.07    0.00    0.00      -1.34    1.09   -0.24
#  10    5.74   -0.86    0.09   -1.63   -0.18    0.00    0.00       3.16   -6.10   -0.66
#  11   -6.95   -0.49    0.02    1.73    0.08    0.00    0.00      -5.62    8.03    0.37
#  12   -9.71   -1.12    0.13    3.15    0.60    0.00    0.00      -6.95   10.35    1.96
#  13    3.33   -0.63    0.04   -0.85   -0.08    0.00    0.00       1.81   -2.59   -0.23
#  14   -1.54   -1.17    0.25    0.30   -0.11    0.00    0.00      -2.27    0.77   -0.27
#  15   -2.55   -2.72    1.04    0.74   -0.21    0.00    0.00      -3.70    1.50   -0.43
#  16   -2.43   -3.60    1.44    0.63   -0.29    0.00    0.00      -4.25    1.01   -0.47
#  17   -3.28   -4.81    3.15    0.72   -0.33    0.00    0.00      -4.56    1.02   -0.47
#  18   -3.48   -6.12    5.64    1.27   -0.33    0.00    0.00      -3.02    1.81   -0.47
#  19   -2.61   -5.37    5.97    1.77   -0.28    0.00    0.00      -0.52    2.88   -0.45
#  20   -1.71   -3.27    2.44    1.25   -0.20    0.00    0.00      -1.49    2.42   -0.39
#  21   -0.85   -1.07    0.22    0.17   -0.06    0.00    0.00      -1.59    0.39   -0.13
#  22   -1.96   -1.02    0.17    0.53   -0.07    0.00    0.00      -2.35    1.26   -0.17
#  23   -1.02   -1.04    0.12    0.14   -0.10    0.00    0.00      -1.90    0.43   -0.31
#  24   -1.88   -1.43    0.47    0.69   -0.17    0.00    0.00      -2.32    1.82   -0.45
#  25   -1.13   -1.93    2.66    0.38   -0.15    0.00    0.00      -0.17    1.15   -0.46
#  26    0.19   -1.08    0.53   -0.10   -0.08    0.00    0.00      -0.54   -0.40   -0.30
#  27   -1.22   -0.68    0.14    1.41    0.14    0.00    0.00      -0.22    6.26    0.62
#  28    0.11   -0.26    0.02   -0.23   -0.02    0.00    0.00      -0.38   -1.52   -0.12
#  29   -0.06   -0.18    0.01    0.11   -0.02    0.00    0.00      -0.14    1.01   -0.18
#  30   -0.13   -0.10    0.00    0.19   -0.01    0.00    0.00      -0.05    3.54   -0.25
#  31    0.37   -0.09    0.00   -0.46   -0.01    0.00    0.00      -0.18  -14.66   -0.16
#  32   -0.55   -0.08    0.00    0.85   -0.01    0.00    0.00       0.21   25.12   -0.41
#  33   -0.55   -0.06    0.00    0.74   -0.01    0.00    0.00       0.12   28.11   -0.43
#  34    0.07   -0.21    0.01   -0.05   -0.01    0.00    0.00      -0.19   -0.39   -0.12
#  35   -2.05   -0.29    0.01    1.38    0.04    0.00    0.00      -0.92    9.58    0.27
#  36    0.95   -0.60    0.05   -0.32   -0.06    0.00    0.00       0.01   -1.48   -0.30
#  37   -2.80   -0.75    0.06    1.46   -0.10    0.00    0.00      -2.13    5.90   -0.41
#  38   15.38   -1.10    0.30   -4.70   -0.04    0.00    0.00       9.83  -17.97   -0.16
#  39  -22.80   -2.44    1.95    9.27   -0.10    0.00    0.00     -14.13   25.88   -0.29
#  40  -21.28   -1.17    0.70    6.76   -0.13    0.00    0.00     -15.11   30.91   -0.59
#  41    0.48   -0.03    0.00    0.04   -0.01    0.00    0.00       0.48    1.45   -0.28
#  42    0.22   -0.02    0.00    0.05    0.00    0.00    0.00       0.25    2.77   -0.28
#  43    0.11   -0.02    0.00    0.04   -0.01    0.00    0.00       0.11    1.49   -0.28
#  44    0.21   -0.03    0.00    0.02   -0.01    0.00    0.00       0.20    0.65   -0.28
#  45    0.94   -0.07    0.01    0.00   -0.02    0.00    0.00       0.85   -0.02   -0.28
#  46    0.43   -0.14    0.03    0.05   -0.04    0.00    0.00       0.34    0.42   -0.28
#  47    0.17   -0.09    0.01   -0.02   -0.02    0.00    0.00       0.06   -0.19   -0.28
#  48    0.34   -0.04    0.00    0.00   -0.01    0.00    0.00       0.28   -0.14   -0.28
#  49    0.61   -0.59    0.41   -0.20   -0.09    0.00    0.00       0.15   -0.62   -0.28
#  50    0.42   -0.47    0.55   -0.17   -0.07    0.00    0.00       0.25   -0.67   -0.28
#  51    4.25   -0.03    0.00   -1.80    0.16    0.00    0.00       2.58   -6.33    0.57
#  52    3.12   -0.14    0.01   -0.17   -0.03    0.00    0.00       2.79   -1.35   -0.25
#  53    0.73   -0.85    0.75   -0.42   -0.11    0.00    0.00       0.12   -1.10   -0.28
#  54    1.29   -0.22    0.02   -0.25   -0.06    0.00    0.00       0.77   -1.13   -0.28
#  55    1.34   -1.33    3.00   -0.73   -0.17    0.00    0.00       2.11   -1.21   -0.28
#  56    2.55   -1.12    0.97   -0.94   -0.22    0.00    0.00       1.25   -1.20   -0.28
#  57    3.06   -1.58    1.93   -1.40   -0.22    0.00    0.00       1.80   -1.82   -0.28
#  58    3.41   -1.04    0.80   -1.03   -0.17    0.00    0.00       1.96   -1.61   -0.27
#  59    1.71   -0.48    0.20   -0.18   -0.08    0.00    0.00       1.17   -0.53   -0.22
#  60    3.88   -0.55    0.20   -0.49   -0.09    0.00    0.00       2.95   -1.05   -0.20
#  61    1.99   -0.44    0.33   -0.43   -0.06    0.00    0.00       1.39   -1.81   -0.27
#  62    1.41   -0.34    0.07   -0.89   -0.09    0.00    0.00       0.16   -2.69   -0.28
#  63    0.82   -0.42    0.50   -0.60   -0.06    0.00    0.00       0.23   -2.70   -0.28
#  64    0.09   -0.10    0.01   -0.15   -0.03    0.00    0.00      -0.17   -1.42   -0.28
#  65    0.05   -0.06    0.00   -0.09   -0.01    0.00    0.00      -0.11   -1.69   -0.28
#  66    0.07   -0.06    0.00   -0.11   -0.02    0.00    0.00      -0.12   -1.87   -0.28
#  67    0.04   -0.04    0.00   -0.07   -0.01    0.00    0.00      -0.09   -1.83   -0.28
#  68    0.04   -0.02    0.00   -0.05   -0.01    0.00    0.00      -0.03   -2.13   -0.27
#  69    0.16   -0.03    0.00   -0.08   -0.01    0.00    0.00       0.05   -2.91   -0.28
#  70    0.12   -0.12    0.01   -0.20   -0.03    0.00    0.00      -0.21   -1.97   -0.28

@<TRIPOS>MOLECULE
       AVX38747_0       100
   70    73     0     0     0



@<TRIPOS>ATOM
      1 N1         15.1993   -17.6433    12.5501 N.4        1          -0.6376
      2 H1         14.3741   -17.9642    13.0339 H          1           0.4316
      3 H2         15.7248   -18.4382    12.2180 H          1           0.4365
      4 H3         14.9277   -17.0685    11.7667 H          1           0.4359
      5 C1         16.0312   -16.8560    13.4699 C.3        1          -0.0120
      6 C2         16.4432   -17.7276    14.6579 C.3        1          -0.1499
      7 C3         17.2402   -18.9328    14.1542 C.3        1          -0.1219
      8 C4         17.6521   -19.8042    15.3423 C.3        1          -0.0991
      9 C5         18.4489   -21.0094    14.8388 C.3        1          -0.1463
     10 C6         17.5956   -21.8172    13.8953 C.2        1           0.5201
     11 O1         16.5513   -22.2974    14.2823 O.2        1          -0.5511
     12 N2         17.9927   -22.0059    12.6212 N.am       1          -0.7082
     13 C7         17.1630   -22.7912    11.7040 C.3        1           0.1480
     14 C8         17.0500   -24.2542    12.1825 C.3        1          -0.0873
     15 C9         17.0211   -25.0839    10.9167 C.ar       1          -0.1066
     16 C10        16.6220   -26.3940    10.7113 C.ar       1          -0.1134
     17 C11        16.6844   -26.9497     9.4485 C.ar       1          -0.1302
     18 C12        17.1468   -26.1965     8.3854 C.ar       1          -0.1237
     19 C13        17.5454   -24.8899     8.5883 C.ar       1          -0.0887
     20 C14        17.4835   -24.3309     9.8538 C.ar       1          -0.0603
     21 C15        17.8547   -22.9437    10.3326 C.3        1          -0.0353
     22 C16        17.3344   -21.8878     9.3553 C.3        1          -0.0611
     23 C17        18.0609   -20.5879     9.5864 C.ar       1          -0.0466
     24 C18        19.4286   -20.5265     9.4369 C.ar       1          -0.1333
     25 C19        20.1029   -19.3353     9.6466 C.ar       1          -0.1202
     26 C20        19.4104   -18.1904    10.0088 C.ar       1           0.0241
     27 O2         20.0944   -17.0292    10.2019 O.3        1          -0.3065
     28 C21        19.4162   -15.9955    10.9239 C.3        1           0.0494
     29 C22        20.1606   -14.6703    10.7487 C.3        1          -0.0779
     30 C23        19.7626   -13.7095    11.8710 C.3        1          -0.1800
     31 C24        18.2770   -13.4622    11.8172 C.2        1           0.4916
     32 O3         17.7762   -12.9728    10.8192 O.co2      1          -0.7032
     33 O4         17.5760   -13.7514    12.7719 O.co2      1          -0.7089
     34 C25        17.9944   -15.8690    10.3602 C.3        1           0.0218
     35 O5         17.3331   -17.1280    10.5258 O.3        1          -0.2601
     36 C26        18.0306   -18.2359    10.1661 C.ar       1           0.0831
     37 C27        17.3459   -19.4408     9.9471 C.ar       1          -0.1362
     38 C28        15.8835   -19.4991    10.1023 C.2        1           0.5226
     39 O6         15.1573   -19.2753     9.1435 O.co2      1          -0.6809
     40 O7         15.3942   -19.7713    11.1899 O.co2      1          -0.6667
     41 H4         16.9228   -16.5094    12.9471 H          1           0.1381
     42 H5         15.4637   -15.9974    13.8287 H          1           0.1321
     43 H6         17.0606   -17.1433    15.3404 H          1           0.0849
     44 H7         15.5518   -18.0742    15.1807 H          1           0.0901
     45 H8         16.6228   -19.5169    13.4719 H          1           0.0804
     46 H9         18.1316   -18.5861    13.6316 H          1           0.0724
     47 H10        18.2693   -19.2201    16.0248 H          1           0.0693
     48 H11        16.7607   -20.1509    15.8651 H          1           0.0757
     49 H12        19.3404   -20.6628    14.3160 H          1           0.0980
     50 H13        18.7423   -21.6303    15.6852 H          1           0.0898
     51 H14        18.8278   -21.6219    12.3117 H          1           0.4030
     52 H15        16.1773   -22.3395    11.5927 H          1           0.1006
     53 H16        17.9147   -24.5213    12.7901 H          1           0.0775
     54 H17        16.1299   -24.3968    12.7492 H          1           0.0722
     55 H18        16.2610   -26.9832    11.5413 H          1           0.1118
     56 H19        16.3727   -27.9718     9.2917 H          1           0.1164
     57 H20        17.1966   -26.6297     7.3973 H          1           0.1194
     58 H21        17.9065   -24.3022     7.7573 H          1           0.1312
     59 H22        18.9357   -22.8582    10.4427 H          1           0.1087
     60 H23        17.5063   -22.2233     8.3325 H          1           0.1171
     61 H24        16.2662   -21.7403     9.5146 H          1           0.0452
     62 H25        19.9782   -21.4125     9.1551 H          1           0.1140
     63 H26        21.1756   -19.2979     9.5273 H          1           0.1175
     64 H27        19.3713   -16.2547    11.9817 H          1           0.0754
     65 H28        21.2351   -14.8492    10.7874 H          1           0.0672
     66 H29        19.8997   -14.2316     9.7854 H          1           0.0818
     67 H30        20.0234   -14.1481    12.8342 H          1           0.0568
     68 H31        20.2930   -12.7655    11.7460 H          1           0.0625
     69 H32        17.4517   -15.0946    10.9022 H          1           0.1141
     70 H33        18.0401   -15.6141     9.3014 H          1           0.0652
@<TRIPOS>BOND
     1    1    2 1
     2    1    3 1
     3    1    4 1
     4    1    5 1
     5    5    6 1
     6    5   41 1
     7    5   42 1
     8    6    7 1
     9    6   43 1
    10    6   44 1
    11    7    8 1
    12    7   45 1
    13    7   46 1
    14    8    9 1
    15    8   47 1
    16    8   48 1
    17    9   10 1
    18    9   49 1
    19    9   50 1
    20   10   11 2
    21   10   12 am
    22   12   13 1
    23   12   51 1
    24   13   21 1
    25   13   14 1
    26   13   52 1
    27   14   15 1
    28   14   53 1
    29   14   54 1
    30   15   20 ar
    31   15   16 ar
    32   16   17 ar
    33   16   55 1
    34   17   18 ar
    35   17   56 1
    36   18   19 ar
    37   18   57 1
    38   19   20 ar
    39   19   58 1
    40   20   21 1
    41   21   22 1
    42   21   59 1
    43   22   23 1
    44   22   60 1
    45   22   61 1
    46   23   37 ar
    47   23   24 ar
    48   24   25 ar
    49   24   62 1
    50   25   26 ar
    51   25   63 1
    52   26   36 ar
    53   26   27 1
    54   27   28 1
    55   28   29 1
    56   28   34 1
    57   28   64 1
    58   29   30 1
    59   29   65 1
    60   29   66 1
    61   30   31 1
    62   30   67 1
    63   30   68 1
    64   31   32 1
    65   31   33 2
    66   34   35 1
    67   34   69 1
    68   34   70 1
    69   35   36 1
    70   36   37 ar
    71   37   38 1
    72   38   39 1
    73   38   40 2
