AVX38743_5, 3
##########                 Name:           AVX38743_0
##########          Protonation:                  100
##########               SMILES:   c1ccc\2c(c1)C[C@H](/C2=C/c3ccc4c(c3C(=O)[O-])O[C@@H](CO4)CCC(=O)[O-])O
##########            Long Name:   ]methyl]-3-(3-oxido-3-oxo-propyl)-2,3-dihydro-1,4-benzodioxine-5-carboxylate
##########          FlexRecCode: 1
##########               Number:                  632
##########   Ligand Source File: /raid1/people/rgc/Examples/sampl4/screening/ligands/build_1//sampl4-hivint-00000
##########           GlobalRank: 81
##########                 Rank:                    1
##########               Setnum:                   25
##########             Matchnum:                 5036
##########                Cloud:                    1
##########        Electrostatic:           -57.469578
##########        Van der Waals:            -8.165711
##########  Ligand Polar Desolv:            30.949076
########## Ligand Apolar Desolv:            -2.295807
##########      Internal Energy:             0.000000
##########      Receptor Energy: 0.0
########## Receptor Desolvation:             0.000000
########## Receptor Hydrophobic:             0.000000
##########         Total Energy: -36.98
##########        Ligand Charge:            -2.000000
##########            Arbitrary:    +999.9990
##########     heavy atom count:   29
##########           pose count:    1
##########        Ligand Energy:             0.000000
# num electro vdwattr vdwrepu polsolv apolsol rdesolv rhydroe totalscore fullpol fullapo
#   1   -0.49   -0.03    0.00    0.23    0.03    0.00    0.00      -0.26   11.37    1.70
#   2    0.13   -0.05    0.00   -0.09   -0.01    0.00    0.00      -0.01   -3.02   -0.19
#   3   -0.09   -0.07    0.00    0.05   -0.01    0.00    0.00      -0.12    1.14   -0.28
#   4   -0.12   -0.29    0.02    0.14   -0.04    0.00    0.00      -0.29    1.47   -0.44
#   5   -0.13   -0.71    0.19    0.21   -0.08    0.00    0.00      -0.51    1.29   -0.47
#   6   -0.22   -1.77    1.15    0.27   -0.13    0.00    0.00      -0.70    1.00   -0.47
#   7   -0.27   -1.51    0.30    0.81   -0.15    0.00    0.00      -0.82    2.62   -0.47
#   8   -0.61   -0.59    0.03    0.81   -0.08    0.00    0.00      -0.43    3.84   -0.38
#   9   -0.04   -0.28    0.01    0.37   -0.04    0.00    0.00       0.02    3.53   -0.40
#  10   -0.19   -0.15    0.00    0.13   -0.02    0.00    0.00      -0.23    2.40   -0.40
#  11    0.12   -0.21    0.01    0.33   -0.03    0.00    0.00       0.22    3.93   -0.36
#  12   -0.36   -0.39    0.03    0.05   -0.04    0.00    0.00      -0.72    0.35   -0.30
#  13   -0.78   -0.75    0.10    0.44   -0.07    0.00    0.00      -1.06    1.85   -0.28
#  14   -1.54   -1.16    0.18    0.36   -0.15    0.00    0.00      -2.31    1.12   -0.46
#  15    0.50   -0.90    0.10   -0.25   -0.09    0.00    0.00      -0.65   -0.86   -0.30
#  16   -7.32   -1.18    0.20    2.70    0.27    0.00    0.00      -5.34    6.89    0.68
#  17    0.58   -0.89    0.11   -0.57   -0.05    0.00    0.00      -0.82   -1.31   -0.12
#  18    1.07   -0.56    0.03   -0.30   -0.04    0.00    0.00       0.20   -0.94   -0.12
#  19   -1.61   -0.74    0.07    0.64   -0.06    0.00    0.00      -1.71    1.85   -0.18
#  20   -4.63   -0.54    0.04    1.93   -0.07    0.00    0.00      -3.27    6.58   -0.24
#  21   20.04   -1.57    0.50   -7.34   -0.05    0.00    0.00      11.58  -22.38   -0.16
#  22  -33.87   -4.16   10.50   13.91   -0.16    0.00    0.00     -13.79   35.05   -0.41
#  23  -36.05   -3.46    5.59   13.67   -0.14    0.00    0.00     -20.39   40.64   -0.43
#  24   -4.70   -0.55    0.05    3.34    0.05    0.00    0.00      -1.81   14.78    0.24
#  25    1.46   -0.70    0.14   -0.30   -0.06    0.00    0.00       0.54   -1.50   -0.30
#  26   -1.22   -0.51    0.08    1.55   -0.06    0.00    0.00      -0.16   10.03   -0.41
#  27    4.06   -0.37    0.04   -3.45   -0.02    0.00    0.00       0.24  -24.79   -0.17
#  28   -3.41   -0.62    0.13    6.13   -0.06    0.00    0.00       2.18   37.60   -0.34
#  29   -4.66   -0.25    0.02    4.78   -0.07    0.00    0.00      -0.18   43.17   -0.59
#  30    0.28    0.00    0.00   -0.04    0.01    0.00    0.00       0.25   -5.38    1.24
#  31    0.05   -0.01    0.00   -0.02    0.00    0.00    0.00       0.02   -1.35   -0.28
#  32    0.06   -0.01    0.00   -0.03    0.00    0.00    0.00       0.02   -1.95   -0.27
#  33    0.06   -0.02    0.00   -0.04   -0.01    0.00    0.00      -0.01   -1.83   -0.28
#  34    0.11   -0.09    0.01   -0.17   -0.02    0.00    0.00      -0.17   -2.11   -0.28
#  35    0.20   -0.53    0.33   -0.68   -0.09    0.00    0.00      -0.76   -2.16   -0.28
#  36    0.68   -0.63    0.26   -0.91   -0.10    0.00    0.00      -0.70   -2.58   -0.28
#  37    1.59   -0.09    0.00   -0.14   -0.01    0.00    0.00       1.35   -2.02   -0.15
#  38    0.17   -0.04    0.00   -0.13   -0.01    0.00    0.00      -0.01   -2.86   -0.24
#  39    0.33   -0.22    0.08   -0.66   -0.04    0.00    0.00      -0.51   -4.48   -0.26
#  40    1.36   -0.49    0.23   -1.61   -0.10    0.00    0.00      -0.61   -4.52   -0.28
#  41    2.94   -0.39    0.08   -1.92   -0.12    0.00    0.00       0.59   -4.55   -0.28
#  42    1.02   -0.35    0.06   -0.66   -0.09    0.00    0.00      -0.01   -2.02   -0.28
#  43    2.76   -0.23    0.05   -0.49   -0.05    0.00    0.00       2.05   -2.84   -0.28
#  44    1.67   -0.35    0.07   -1.38   -0.08    0.00    0.00      -0.08   -4.70   -0.28
#  45    0.94   -0.30    0.04   -0.29   -0.07    0.00    0.00       0.32   -1.08   -0.28
#  46    1.42   -0.18    0.01    0.00   -0.05    0.00    0.00       1.20    0.01   -0.27
#  47    1.24   -0.13    0.02   -0.45   -0.03    0.00    0.00       0.65   -3.97   -0.28

@<TRIPOS>MOLECULE
       AVX38743_0       100
   47    50     0     0     0



@<TRIPOS>ATOM
      1 O1         16.0766   -13.3655    12.5925 O.3        1          -0.5558
      2 C1         17.0143   -13.5186    11.5252 C.3        1           0.1522
      3 C2         16.5164   -12.8232    10.2556 C.3        1          -0.1035
      4 C3         15.7791   -13.8837     9.4802 C.ar       1          -0.1076
      5 C4         14.9136   -13.7927     8.4071 C.ar       1          -0.1122
      6 C5         14.3320   -14.9327     7.8830 C.ar       1          -0.1356
      7 C6         14.6111   -16.1746     8.4265 C.ar       1          -0.1195
      8 C7         15.4838   -16.2837     9.4886 C.ar       1          -0.1126
      9 C8         16.0857   -15.1363    10.0141 C.ar       1          -0.0223
     10 C9         17.0917   -14.9580    11.0775 C.2        1          -0.1616
     11 C10        17.9217   -15.9008    11.5584 C.2        1           0.0442
     12 C11        18.0039   -17.2126    10.9003 C.ar       1          -0.0524
     13 C12        18.4015   -17.3051     9.5667 C.ar       1          -0.1153
     14 C13        18.4768   -18.5364     8.9492 C.ar       1          -0.1277
     15 C14        18.1594   -19.6981     9.6418 C.ar       1           0.0276
     16 O2         18.2369   -20.8961     8.9990 O.3        1          -0.3162
     17 C15        18.2739   -22.0669     9.8219 C.3        1           0.0263
     18 C16        17.1844   -21.9348    10.8947 C.3        1           0.0403
     19 C17        17.2046   -23.1643    11.8049 C.3        1          -0.0756
     20 C18        15.8615   -23.2862    12.5275 C.3        1          -0.1832
     21 C19        14.7565   -23.4305    11.5131 C.2        1           0.4955
     22 O3         14.7600   -24.3711    10.7375 O.co2      1          -0.7096
     23 O4         13.8589   -22.6064    11.4679 O.co2      1          -0.7104
     24 O5         17.4552   -20.7590    11.6651 O.3        1          -0.2435
     25 C20        17.7633   -19.6322    10.9727 C.ar       1           0.0881
     26 C21        17.6861   -18.3889    11.6165 C.ar       1          -0.1149
     27 C22        17.2726   -18.3092    13.0226 C.2        1           0.5182
     28 O6         18.1123   -18.3652    13.9115 O.co2      1          -0.6900
     29 O7         16.0884   -18.1868    13.3063 O.co2      1          -0.6448
     30 H1         15.9918   -12.4575    12.9145 H          1           0.3688
     31 H2         17.9971   -13.1478    11.8162 H          1           0.0713
     32 H3         15.8424   -12.0058    10.5122 H          1           0.0815
     33 H4         17.3593   -12.4481     9.6750 H          1           0.0776
     34 H5         14.6902   -12.8279     7.9764 H          1           0.1116
     35 H6         13.6557   -14.8534     7.0446 H          1           0.1151
     36 H7         14.1446   -17.0592     8.0187 H          1           0.1182
     37 H8         15.7021   -17.2525     9.9128 H          1           0.1404
     38 H9         18.5279   -15.6941    12.4280 H          1           0.1492
     39 H10        18.6508   -16.4102     9.0158 H          1           0.1243
     40 H11        18.7855   -18.5979     7.9161 H          1           0.1245
     41 H12        18.0845   -22.9507     9.2125 H          1           0.1146
     42 H13        19.2507   -22.1507    10.2983 H          1           0.0728
     43 H14        16.2080   -21.8462    10.4181 H          1           0.0728
     44 H15        17.3766   -24.0579    11.2049 H          1           0.0746
     45 H16        18.0038   -23.0600    12.5387 H          1           0.0715
     46 H17        15.8760   -24.1622    13.1760 H          1           0.0832
     47 H18        15.6895   -22.3926    13.1277 H          1           0.0499
@<TRIPOS>BOND
     1    1    2 1
     2    1   30 1
     3    2   10 1
     4    2    3 1
     5    2   31 1
     6    3    4 1
     7    3   32 1
     8    3   33 1
     9    4    9 ar
    10    4    5 ar
    11    5    6 ar
    12    5   34 1
    13    6    7 ar
    14    6   35 1
    15    7    8 ar
    16    7   36 1
    17    8    9 ar
    18    8   37 1
    19    9   10 1
    20   10   11 2
    21   11   12 1
    22   11   38 1
    23   12   26 ar
    24   12   13 ar
    25   13   14 ar
    26   13   39 1
    27   14   15 ar
    28   14   40 1
    29   15   25 ar
    30   15   16 1
    31   16   17 1
    32   17   18 1
    33   17   41 1
    34   17   42 1
    35   18   19 1
    36   18   24 1
    37   18   43 1
    38   19   20 1
    39   19   44 1
    40   19   45 1
    41   20   21 1
    42   20   46 1
    43   20   47 1
    44   21   22 1
    45   21   23 2
    46   24   25 1
    47   25   26 ar
    48   26   27 1
    49   27   28 1
    50   27   29 2
