AVX38782_1, 3
##########                 Name:           AVX38782_0
##########          Protonation:                   61
##########               SMILES:   C=CC[NH+](Cc1ccccc1C(=O)NCC2CCC2)Cc3ccc4c(c3C(=O)[O-])OC[C@H](O4)CCC(=O)[O-]
##########            Long Name:   ]methyl]-2-(3-oxido-3-oxo-propyl)-2,3-dihydro-1,4-benzodioxine-5-carboxylate
##########          FlexRecCode: 1
##########               Number:                  581
##########   Ligand Source File: /raid1/people/rgc/Examples/sampl4/screening/ligands/build_1//sampl4-hivint-00000
##########           GlobalRank: 21
##########                 Rank:                    1
##########               Setnum:                   58
##########             Matchnum:                25698
##########                Cloud:                    1
##########        Electrostatic:           -49.189606
##########        Van der Waals:           -17.165195
##########  Ligand Polar Desolv:            24.884951
########## Ligand Apolar Desolv:            -2.596275
##########      Internal Energy:             0.000000
##########      Receptor Energy: 0.0
########## Receptor Desolvation:             0.000000
########## Receptor Hydrophobic:             0.000000
##########         Total Energy: -44.07
##########        Ligand Charge:            -1.000000
##########            Arbitrary:    +999.9990
##########     heavy atom count:   38
##########           pose count:    1
##########        Ligand Energy:             0.000000
# num electro vdwattr vdwrepu polsolv apolsol rdesolv rhydroe totalscore fullpol fullapo
#   1  -29.16   -1.59    0.99    8.43   -0.12    0.00    0.00     -21.45   29.35   -0.41
#   2   18.28   -1.23    0.30   -4.91   -0.05    0.00    0.00      12.39  -16.32   -0.16
#   3  -33.75   -2.81    3.11   11.93   -0.16    0.00    0.00     -21.70   31.09   -0.43
#   4   -3.97   -0.60    0.04    1.20   -0.08    0.00    0.00      -3.41    3.76   -0.24
#   5   -1.46   -0.73    0.15    0.49   -0.06    0.00    0.00      -1.61    1.56   -0.18
#   6    1.14   -0.84    0.09   -0.85   -0.05    0.00    0.00      -0.51   -2.05   -0.12
#   7    0.25   -1.07    0.29   -0.23   -0.05    0.00    0.00      -0.82   -0.56   -0.12
#   8   -2.97   -1.10    0.44    2.89    0.09    0.00    0.00      -0.64    8.74    0.27
#   9    1.27   -0.99    0.11   -0.21   -0.09    0.00    0.00       0.09   -0.68   -0.30
#  10   -0.67   -0.97    0.21    0.76   -0.08    0.00    0.00      -0.75    2.84   -0.30
#  11    1.79   -0.82    0.15   -2.92   -0.03    0.00    0.00      -1.83  -13.15   -0.15
#  12   -1.74   -0.47    0.04    4.72   -0.11    0.00    0.00       2.44   26.20   -0.59
#  13   -1.10   -1.73    0.96    3.78   -0.06    0.00    0.00       1.85   14.57   -0.25
#  14   -0.78   -1.06    0.18    0.12   -0.06    0.00    0.00      -1.59    0.48   -0.23
#  15    0.07   -0.52    0.07   -0.03   -0.06    0.00    0.00      -0.47   -0.16   -0.28
#  16   -0.44   -0.18    0.00    0.01    0.01    0.00    0.00      -0.59    0.14    0.07
#  17    1.02    0.00    0.00   -0.08    0.01    0.00    0.00       0.94   -2.88    0.29
#  18    0.04   -0.14    0.00    0.01   -0.03    0.00    0.00      -0.11    0.14   -0.37
#  19   -0.22   -0.09    0.00    0.02   -0.01    0.00    0.00      -0.30    0.62   -0.35
#  20   -0.17   -0.06    0.00    0.02   -0.01    0.00    0.00      -0.21    0.77   -0.34
#  21    0.02   -0.08    0.00    0.00   -0.01    0.00    0.00      -0.07    0.08   -0.28
#  22   -0.07   -0.15    0.00   -0.01   -0.02    0.00    0.00      -0.24   -0.21   -0.31
#  23   -0.09   -0.31    0.01   -0.08   -0.05    0.00    0.00      -0.51   -0.66   -0.39
#  24   -0.08   -0.33    0.03   -0.07   -0.06    0.00    0.00      -0.51   -0.53   -0.47
#  25   -0.08   -0.21    0.01   -0.03   -0.04    0.00    0.00      -0.35   -0.33   -0.47
#  26   -0.06   -0.18    0.00    0.00   -0.03    0.00    0.00      -0.26    0.06   -0.44
#  27   -0.08   -0.12    0.00    0.02   -0.02    0.00    0.00      -0.20    0.46   -0.40
#  28    0.38   -0.12    0.00   -0.19   -0.03    0.00    0.00       0.05   -4.67   -0.63
#  29   -0.32   -0.07    0.00    0.19    0.01    0.00    0.00      -0.19    7.19    0.22
#  30   -0.56   -0.19    0.01    0.53    0.18    0.00    0.00      -0.03    6.79    2.31
#  31    0.10   -0.11    0.00   -0.17   -0.03    0.00    0.00      -0.20   -2.41   -0.42
#  32   -0.10   -0.36    0.08    0.18   -0.04    0.00    0.00      -0.24    1.12   -0.24
#  33   -0.10   -0.22    0.02    0.13   -0.04    0.00    0.00      -0.21    1.06   -0.33
#  34   -0.09   -0.50    0.15    0.20   -0.05    0.00    0.00      -0.29    1.30   -0.34
#  35   -0.09   -0.96    0.46    0.49   -0.07    0.00    0.00      -0.17    2.20   -0.33
#  36   -1.61   -1.63    0.36    0.08   -0.13    0.00    0.00      -2.93    0.24   -0.39
#  37   -3.22   -2.70    1.81    0.54   -0.16    0.00    0.00      -3.73    1.55   -0.46
#  38    1.55   -1.70    0.87    0.04   -0.10    0.00    0.00       0.66    0.13   -0.30
#  39   -9.51   -1.65    0.76    2.93    0.24    0.00    0.00      -7.23    7.70    0.62
#  40    0.96   -0.13    0.00   -0.34   -0.04    0.00    0.00       0.45   -2.49   -0.28
#  41    1.27   -0.30    0.05   -0.56   -0.07    0.00    0.00       0.38   -2.20   -0.27
#  42    1.29   -0.14    0.02   -0.15   -0.04    0.00    0.00       0.98   -1.23   -0.28
#  43    0.89   -0.52    0.51   -0.67   -0.09    0.00    0.00       0.13   -2.20   -0.28
#  44    1.67   -0.37    0.09   -0.72   -0.11    0.00    0.00       0.55   -1.82   -0.28
#  45    0.65   -0.40    0.15   -0.54   -0.10    0.00    0.00      -0.25   -1.47   -0.28
#  46    1.78   -0.68    1.20   -1.11   -0.10    0.00    0.00       1.08   -3.03   -0.28
#  47    0.09   -0.18    0.03    0.16   -0.04    0.00    0.00       0.07    1.09   -0.27
#  48    0.18   -0.29    0.11   -0.12   -0.03    0.00    0.00      -0.14   -0.65   -0.15
#  49    0.15   -0.05    0.00    0.04   -0.01    0.00    0.00       0.13    0.93   -0.20
#  50    0.50   -0.06    0.00    0.09   -0.01    0.00    0.00       0.52    2.18   -0.28
#  51    0.19   -0.01    0.00   -0.01    0.00    0.00    0.00       0.17   -0.56   -0.22
#  52    0.10   -0.01    0.00    0.00    0.00    0.00    0.00       0.08   -0.13   -0.27
#  53    0.11   -0.01    0.00    0.00    0.00    0.00    0.00       0.10   -0.50   -0.28
#  54    0.14   -0.03    0.00    0.00    0.00    0.00    0.00       0.11    0.02   -0.14
#  55    0.10   -0.01    0.00    0.03    0.00    0.00    0.00       0.12    2.24   -0.27
#  56    0.12   -0.10    0.01    0.25   -0.03    0.00    0.00       0.25    2.46   -0.28
#  57    0.13   -0.10    0.01    0.17   -0.03    0.00    0.00       0.18    1.52   -0.28
#  58    0.11   -0.04    0.00    0.03   -0.01    0.00    0.00       0.08    0.72   -0.28
#  59    0.09   -0.05    0.00    0.00   -0.01    0.00    0.00       0.03   -0.01   -0.22
#  60    0.34    0.00    0.00   -0.13    0.02    0.00    0.00       0.23   -2.27    0.43
#  61    0.06   -0.02    0.00    0.00    0.00    0.00    0.00       0.04    0.20   -0.28
#  62    0.07   -0.02    0.00   -0.01   -0.01    0.00    0.00       0.04   -0.37   -0.27
#  63    0.08   -0.28    0.28   -0.18   -0.05    0.00    0.00      -0.14   -1.08   -0.28
#  64    0.07   -0.02    0.00   -0.01    0.00    0.00    0.00       0.03   -0.58   -0.27
#  65    0.05   -0.08    0.01   -0.06   -0.02    0.00    0.00      -0.11   -0.69   -0.28
#  66    0.04   -0.05    0.00   -0.03   -0.01    0.00    0.00      -0.05   -0.59   -0.28
#  67    0.04   -0.39    0.45   -0.14   -0.04    0.00    0.00      -0.08   -0.89   -0.28
#  68    0.05   -0.85    1.76   -0.29   -0.09    0.00    0.00       0.59   -0.94   -0.28
#  69    0.05   -0.22    0.06   -0.11   -0.05    0.00    0.00      -0.26   -0.66   -0.28
#  70    1.15   -0.34    0.06    0.00   -0.08    0.00    0.00       0.79    0.01   -0.28
#  71    4.86   -1.10    1.75   -0.63   -0.10    0.00    0.00       4.78   -1.81   -0.28

@<TRIPOS>MOLECULE
       AVX38782_0        61
   71    74     0     0     0



@<TRIPOS>ATOM
      1 O1         15.3376   -21.2720    11.0494 O.co2      1          -0.6990
      2 C1         15.9508   -22.3182    10.9237 C.2        1           0.4902
      3 O2         15.4871   -23.2188    10.2451 O.co2      1          -0.7072
      4 C2         17.2847   -22.4960    11.6020 C.3        1          -0.1782
      5 C3         18.2605   -21.4323    11.0947 C.3        1          -0.0837
      6 C4         18.4340   -21.5795     9.5817 C.3        1           0.0537
      7 C5         19.7052   -20.8508     9.1301 C.3        1           0.0181
      8 O3         19.5784   -19.4821     9.5285 O.3        1          -0.2608
      9 C6         18.4053   -18.8667     9.2322 C.ar       1           0.0921
     10 C7         18.3334   -17.4663     9.2399 C.ar       1          -0.0917
     11 C8         19.5248   -16.6661     9.5664 C.2        1           0.5284
     12 O4         19.7522   -16.3530    10.7270 O.co2      1          -0.6374
     13 O5         20.2877   -16.3141     8.6771 O.co2      1          -0.7102
     14 C9         17.1230   -16.8340     8.9352 C.ar       1          -0.1133
     15 C10        17.0359   -15.3294     8.9403 C.3        1           0.0606
     16 N1         16.6574   -14.8654    10.2817 N.4        1          -0.3535
     17 H1         17.1396   -15.4158    10.9766 H          1           0.4372
     18 C11        15.2068   -15.0136    10.4599 C.3        1           0.0284
     19 C12        14.8185   -14.5375    11.8359 C.2        1          -0.1681
     20 C13        13.9713   -13.5476    11.9717 C.2        1          -0.1477
     21 C14        17.0276   -13.4519    10.4334 C.3        1           0.0231
     22 C15        18.5158   -13.3000    10.2505 C.ar       1          -0.0838
     23 C16        19.0369   -13.0566     8.9963 C.ar       1          -0.1054
     24 C17        20.4027   -12.9167     8.8267 C.ar       1          -0.0946
     25 C18        21.2550   -13.0196     9.9120 C.ar       1          -0.1039
     26 C19        20.7469   -13.2621    11.1713 C.ar       1          -0.0833
     27 C20        19.3693   -13.3991    11.3501 C.ar       1          -0.1083
     28 C21        18.8171   -13.6534    12.6980 C.2        1           0.5382
     29 O6         18.5041   -12.7211    13.4123 O.2        1          -0.5117
     30 N2         18.6610   -14.9190    13.1344 N.am       1          -0.7100
     31 C22        18.1139   -15.1710    14.4698 C.3        1           0.1270
     32 C23        19.1367   -15.9471    15.3019 C.3        1          -0.1244
     33 C24        18.6952   -16.1939    16.7481 C.3        1          -0.1366
     34 C25        19.2794   -14.8116    17.0574 C.3        1          -0.1432
     35 C26        20.2434   -15.0688    15.8947 C.3        1          -0.1290
     36 C27        16.0113   -17.5874     8.6301 C.ar       1          -0.1141
     37 C28        16.0832   -18.9708     8.6223 C.ar       1          -0.1215
     38 C29        17.2743   -19.6126     8.9204 C.ar       1           0.0628
     39 O7         17.3288   -20.9726     8.9045 O.3        1          -0.2991
     40 H2         17.1611   -22.3913    12.6799 H          1           0.0538
     41 H3         17.6780   -23.4872    11.3761 H          1           0.0630
     42 H4         17.8672   -20.4412    11.3205 H          1           0.0736
     43 H5         19.2254   -21.5608    11.5851 H          1           0.0845
     44 H6         18.4956   -22.6352     9.3172 H          1           0.0760
     45 H7         20.5772   -21.2965     9.6088 H          1           0.0732
     46 H8         19.8026   -20.9133     8.0462 H          1           0.1195
     47 H9         18.0044   -14.9086     8.6700 H          1           0.1023
     48 H10        16.2853   -15.0065     8.2190 H          1           0.1586
     49 H11        14.6861   -14.4189     9.7093 H          1           0.1118
     50 H12        14.9321   -16.0623    10.3471 H          1           0.1197
     51 H13        15.2385   -15.0126    12.7101 H          1           0.1406
     52 H14        13.5512   -13.0726    11.0975 H          1           0.0938
     53 H15        13.6930   -13.2065    12.9580 H          1           0.1120
     54 H16        16.5068   -12.8574     9.6828 H          1           0.1636
     55 H17        16.7467   -13.1074    11.4287 H          1           0.1182
     56 H18        18.3772   -12.9755     8.1451 H          1           0.1372
     57 H19        20.8056   -12.7267     7.8429 H          1           0.1357
     58 H20        22.3204   -12.9101     9.7728 H          1           0.1362
     59 H21        21.4131   -13.3422    12.0175 H          1           0.1335
     60 H22        18.9108   -15.6629    12.5643 H          1           0.3971
     61 H23        17.8942   -14.2213    14.9576 H          1           0.0835
     62 H24        17.1978   -15.7552    14.3828 H          1           0.0726
     63 H25        19.5077   -16.8384    14.7960 H          1           0.0932
     64 H26        17.6139   -16.2514    16.8732 H          1           0.0838
     65 H27        19.2249   -17.0129    17.2349 H          1           0.0639
     66 H28        18.5843   -13.9914    16.8778 H          1           0.0717
     67 H29        19.7700   -14.7500    18.0289 H          1           0.0786
     68 H30        21.1375   -15.6229    16.1804 H          1           0.0717
     69 H31        20.4633   -14.1806    15.3024 H          1           0.0878
     70 H32        15.0781   -17.0969     8.3959 H          1           0.1202
     71 H33        15.2055   -19.5525     8.3821 H          1           0.1289
@<TRIPOS>BOND
     1    1    2 1
     2    2    3 2
     3    2    4 1
     4    4    5 1
     5    4   40 1
     6    4   41 1
     7    5    6 1
     8    5   42 1
     9    5   43 1
    10    6   39 1
    11    6    7 1
    12    6   44 1
    13    7    8 1
    14    7   45 1
    15    7   46 1
    16    8    9 1
    17    9   38 ar
    18    9   10 ar
    19   10   11 1
    20   10   14 ar
    21   11   12 1
    22   11   13 2
    23   14   15 1
    24   14   36 ar
    25   15   16 1
    26   15   47 1
    27   15   48 1
    28   16   17 1
    29   16   18 1
    30   16   21 1
    31   18   19 1
    32   18   49 1
    33   18   50 1
    34   19   20 2
    35   19   51 1
    36   20   52 1
    37   20   53 1
    38   21   22 1
    39   21   54 1
    40   21   55 1
    41   22   27 ar
    42   22   23 ar
    43   23   24 ar
    44   23   56 1
    45   24   25 ar
    46   24   57 1
    47   25   26 ar
    48   25   58 1
    49   26   27 ar
    50   26   59 1
    51   27   28 1
    52   28   29 2
    53   28   30 am
    54   30   31 1
    55   30   60 1
    56   31   32 1
    57   31   61 1
    58   31   62 1
    59   32   35 1
    60   32   33 1
    61   32   63 1
    62   33   34 1
    63   33   64 1
    64   33   65 1
    65   34   35 1
    66   34   66 1
    67   34   67 1
    68   35   68 1
    69   35   69 1
    70   36   37 ar
    71   36   70 1
    72   37   38 ar
    73   37   71 1
    74   38   39 1
