AVX38788_1, 3
##########                 Name:           AVX38788_0
##########          Protonation:                   23
##########               SMILES:   CN(Cc1ccccc1C(=O)NCC2CCC2)Cc3ccc4c(c3C(=O)[O-])OC[C@@H](O4)CCC(=O)[O-]
##########            Long Name:   ]methyl]-2-(3-oxido-3-oxo-propyl)-2,3-dihydro-1,4-benzodioxine-5-carboxylate
##########          FlexRecCode: 1
##########               Number:                  595
##########   Ligand Source File: /raid1/people/rgc/Examples/sampl4/screening/ligands/build_1//sampl4-hivint-00000
##########           GlobalRank: 52
##########                 Rank:                    1
##########               Setnum:                    6
##########             Matchnum:                15175
##########                Cloud:                    1
##########        Electrostatic:           -41.329685
##########        Van der Waals:           -18.337994
##########  Ligand Polar Desolv:            22.109529
########## Ligand Apolar Desolv:            -2.937082
##########      Internal Energy:             0.000000
##########      Receptor Energy: 0.0
########## Receptor Desolvation:             0.000000
########## Receptor Hydrophobic:             0.000000
##########         Total Energy: -40.5
##########        Ligand Charge:            -2.000000
##########            Arbitrary:    +999.9990
##########     heavy atom count:   36
##########           pose count:    1
##########        Ligand Energy:             0.000000
# num electro vdwattr vdwrepu polsolv apolsol rdesolv rhydroe totalscore fullpol fullapo
#   1    0.09   -0.62    0.13   -0.15   -0.11    0.00    0.00      -0.64   -0.57   -0.43
#   2   -6.03   -0.85    0.08    3.80    0.55    0.00    0.00      -2.45   13.58    1.96
#   3    1.39   -1.15    0.31   -0.91   -0.12    0.00    0.00      -0.49   -2.40   -0.31
#   4   -0.11   -1.47    0.38    0.44   -0.12    0.00    0.00      -0.89    1.12   -0.32
#   5   -1.03   -1.60    0.46    0.82   -0.18    0.00    0.00      -1.53    1.90   -0.42
#   6   -0.49   -2.11    1.00    0.30   -0.24    0.00    0.00      -1.53    0.59   -0.47
#   7   -0.46   -3.65    2.46    0.37   -0.25    0.00    0.00      -1.53    0.68   -0.47
#   8   -0.72   -3.39    2.14    0.34   -0.21    0.00    0.00      -1.84    0.71   -0.44
#   9   -1.64   -1.59    0.39    1.07   -0.17    0.00    0.00      -1.94    2.61   -0.41
#  10   13.04   -1.14    0.10   -4.40   -0.26    0.00    0.00       7.34  -10.96   -0.65
#  11  -16.78   -1.65    0.47    6.80    0.12    0.00    0.00     -11.04   16.89    0.31
#  12  -16.43   -1.06    0.08    3.94    0.83    0.00    0.00     -12.63   10.94    2.31
#  13    4.18   -0.66    0.07   -0.75   -0.13    0.00    0.00       2.71   -2.43   -0.42
#  14   -3.65   -1.05    0.23    0.52   -0.09    0.00    0.00      -4.05    1.32   -0.24
#  15   -4.57   -1.29    0.50    0.50   -0.13    0.00    0.00      -4.99    1.24   -0.33
#  16   -2.58   -0.96    0.33    0.41   -0.12    0.00    0.00      -2.91    1.20   -0.34
#  17   -1.86   -1.44    0.49    0.87   -0.13    0.00    0.00      -2.09    2.14   -0.33
#  18    1.70   -0.58    0.05   -1.53   -0.07    0.00    0.00      -0.43   -5.82   -0.28
#  19   -0.44   -0.36    0.01    0.18   -0.06    0.00    0.00      -0.66    1.30   -0.39
#  20   -0.48   -0.21    0.00    0.14   -0.03    0.00    0.00      -0.58    2.02   -0.38
#  21   -0.29   -0.11    0.00    0.09   -0.02    0.00    0.00      -0.33    2.18   -0.46
#  22    0.06   -0.13    0.00   -0.02   -0.02    0.00    0.00      -0.11   -0.38   -0.30
#  23   -0.48   -0.06    0.00    0.37    0.02    0.00    0.00      -0.15    9.91    0.62
#  24    0.10   -0.08    0.01   -0.13   -0.01    0.00    0.00      -0.12   -2.16   -0.12
#  25   -0.17   -0.17    0.02    0.16   -0.02    0.00    0.00      -0.17    1.63   -0.18
#  26   -0.38   -0.29    0.06    0.63   -0.03    0.00    0.00      -0.01    4.85   -0.24
#  27    0.73   -0.10    0.00   -0.86   -0.01    0.00    0.00      -0.24  -18.84   -0.16
#  28   -0.81   -0.04    0.00    0.59   -0.01    0.00    0.00      -0.27   32.71   -0.41
#  29   -1.01   -0.06    0.00    1.09   -0.01    0.00    0.00       0.02   34.83   -0.43
#  30    0.05   -0.22    0.06   -0.04   -0.01    0.00    0.00      -0.16   -0.45   -0.12
#  31   -1.03   -1.17    1.72    1.76    0.04    0.00    0.00       1.32   12.75    0.27
#  32    0.42   -0.40    0.11   -0.21   -0.03    0.00    0.00      -0.10   -1.91   -0.30
#  33   -2.02   -0.46    0.07    1.33   -0.06    0.00    0.00      -1.14    9.49   -0.41
#  34   15.36   -1.15    0.74   -4.95   -0.04    0.00    0.00       9.97  -23.35   -0.17
#  35  -29.98   -2.97    4.09   11.16   -0.11    0.00    0.00     -17.81   34.68   -0.33
#  36  -17.88   -0.59    0.07    7.47   -0.12    0.00    0.00     -11.06   37.43   -0.59
#  37    0.07   -0.08    0.00   -0.05   -0.02    0.00    0.00      -0.08   -0.68   -0.28
#  38    0.35   -0.17    0.02   -0.15   -0.04    0.00    0.00       0.01   -0.91   -0.22
#  39    0.02   -0.66    1.36   -0.51   -0.05    0.00    0.00       0.17   -2.39   -0.24
#  40    2.78   -0.62    0.86   -0.48   -0.07    0.00    0.00       2.48   -1.45   -0.20
#  41    0.37   -0.71    0.52   -0.28   -0.11    0.00    0.00      -0.22   -0.68   -0.27
#  42    0.93   -0.29    0.04   -0.57   -0.09    0.00    0.00       0.02   -1.81   -0.28
#  43    0.36   -0.31    0.04   -0.42   -0.10    0.00    0.00      -0.43   -1.21   -0.28
#  44   -0.07   -1.11    0.74   -0.54   -0.16    0.00    0.00      -1.15   -0.92   -0.28
#  45    0.82   -1.34    3.06   -0.62   -0.10    0.00    0.00       1.82   -1.34   -0.22
#  46    5.88   -0.02    0.00   -1.25    0.12    0.00    0.00       4.73   -4.57    0.43
#  47    2.14   -0.14    0.01   -0.01   -0.03    0.00    0.00       1.97   -0.10   -0.28
#  48    2.96   -0.35    0.17   -0.13   -0.06    0.00    0.00       2.58   -0.63   -0.27
#  49    2.98   -0.47    0.18   -0.51   -0.10    0.00    0.00       2.08   -1.37   -0.28
#  50    3.58   -0.38    0.14   -0.23   -0.09    0.00    0.00       3.02   -0.72   -0.27
#  51    2.11   -0.64    0.43   -0.34   -0.10    0.00    0.00       1.46   -0.91   -0.28
#  52    1.41   -0.14    0.01   -0.10   -0.04    0.00    0.00       1.14   -0.75   -0.28
#  53    0.67   -0.63    0.81   -0.26   -0.07    0.00    0.00       0.52   -0.97   -0.28
#  54    0.55   -1.08    1.81   -0.41   -0.13    0.00    0.00       0.74   -0.92   -0.28
#  55    0.91   -0.41    0.09   -0.25   -0.09    0.00    0.00       0.25   -0.83   -0.28
#  56    0.56   -0.27    0.04   -0.05   -0.05    0.00    0.00       0.24   -0.21   -0.22
#  57    1.97   -0.28    0.05   -0.14   -0.05    0.00    0.00       1.54   -0.66   -0.25
#  58    0.27   -0.04    0.00   -0.20   -0.01    0.00    0.00       0.01   -5.10   -0.22
#  59    0.12   -0.01    0.00   -0.08    0.00    0.00    0.00       0.03   -4.93   -0.28
#  60    0.11   -0.01    0.00   -0.03    0.00    0.00    0.00       0.07   -2.66   -0.28
#  61    0.11   -0.02    0.00   -0.03   -0.01    0.00    0.00       0.05   -1.77   -0.28
#  62    0.21   -0.10    0.02   -0.30   -0.03    0.00    0.00      -0.20   -3.19   -0.28
#  63    0.11   -0.11    0.02   -0.40   -0.04    0.00    0.00      -0.42   -3.19   -0.28
#  64    0.17   -0.21    0.12   -0.38   -0.04    0.00    0.00      -0.33   -2.65   -0.27
#  65    0.23   -0.03    0.00   -0.12   -0.01    0.00    0.00       0.07   -4.81   -0.28
#  66    0.18   -0.09    0.03   -0.21   -0.02    0.00    0.00      -0.11   -2.49   -0.28

@<TRIPOS>MOLECULE
       AVX38788_0        23
   66    69     0     0     0



@<TRIPOS>ATOM
      1 C1         19.1776   -17.1506     9.4088 C.3        1           0.0198
      2 N1         18.2301   -18.2731     9.4255 N.3        1          -0.5250
      3 C2         18.5753   -19.2687     8.4020 C.3        1           0.0877
      4 C3         19.6954   -20.1410     8.9074 C.ar       1          -0.0082
      5 C4         21.0080   -19.7827     8.6786 C.ar       1          -0.1231
      6 C5         22.0374   -20.5823     9.1419 C.ar       1          -0.0991
      7 C6         21.7586   -21.7459     9.8372 C.ar       1          -0.1356
      8 C7         20.4507   -22.1154    10.0731 C.ar       1          -0.0921
      9 C8         19.4073   -21.3101     9.6129 C.ar       1          -0.1123
     10 C9         18.0033   -21.6971     9.8672 C.2        1           0.5477
     11 O1         17.1337   -21.3822     9.0783 O.2        1          -0.4875
     12 N2         17.6874   -22.3991    10.9734 N.am       1          -0.7330
     13 C10        16.2961   -22.7826    11.2253 C.3        1           0.1305
     14 C11        16.1930   -24.3072    11.3000 C.3        1          -0.1233
     15 C12        14.7880   -24.8144    11.6416 C.3        1          -0.1361
     16 C13        15.1851   -24.6263    13.1094 C.3        1          -0.1429
     17 C14        16.6232   -24.8890    12.6506 C.3        1          -0.1325
     18 C15        16.8500   -17.7995     9.2549 C.3        1           0.1282
     19 C16        16.3321   -17.2769    10.5702 C.ar       1          -0.0440
     20 C17        16.4969   -15.9495    10.8971 C.ar       1          -0.1192
     21 C18        16.0246   -15.4614    12.1044 C.ar       1          -0.1269
     22 C19        15.3804   -16.3028    12.9969 C.ar       1           0.0244
     23 O2         14.9258   -15.8081    14.1808 O.3        1          -0.3053
     24 C20        13.9510   -16.5941    14.8738 C.3        1           0.0508
     25 C21        12.6124   -16.5309    14.1355 C.3        1          -0.0805
     26 C22        11.5773   -17.3736    14.8833 C.3        1          -0.1790
     27 C23        11.4063   -16.8356    16.2806 C.2        1           0.4921
     28 O3         11.0302   -15.6884    16.4504 O.co2      1          -0.7017
     29 O4         11.6439   -17.5478    17.2413 O.co2      1          -0.7118
     30 C24        14.4623   -18.0393    14.9019 C.3        1           0.0197
     31 O5         14.5726   -18.4805    13.5449 O.3        1          -0.2622
     32 C25        15.2042   -17.6452    12.6813 C.ar       1           0.0809
     33 C26        15.6781   -18.1391    11.4574 C.ar       1          -0.1425
     34 C27        15.4934   -19.5573    11.1103 C.2        1           0.5261
     35 O6         14.4896   -19.9142    10.5088 O.co2      1          -0.6950
     36 O7         16.3437   -20.3795    11.4232 O.co2      1          -0.6703
     37 H1         18.8988   -16.4284    10.1761 H          1           0.0190
     38 H2         20.1834   -17.5213     9.6070 H          1           0.0702
     39 H3         19.1538   -16.6695     8.4311 H          1           0.0556
     40 H4         17.7030   -19.8857     8.1865 H          1           0.1096
     41 H5         18.8936   -18.7593     7.4924 H          1           0.0319
     42 H6         21.2324   -18.8760     8.1362 H          1           0.1255
     43 H7         23.0631   -20.2976     8.9598 H          1           0.1218
     44 H8         22.5667   -22.3661    10.1956 H          1           0.1222
     45 H9         20.2345   -23.0237    10.6160 H          1           0.1207
     46 H10        18.3813   -22.6502    11.6031 H          1           0.3924
     47 H11        15.9649   -22.3494    12.1691 H          1           0.0730
     48 H12        15.6656   -22.4149    10.4157 H          1           0.0677
     49 H13        16.6456   -24.8062    10.4432 H          1           0.0939
     50 H14        13.9896   -24.1484    11.3142 H          1           0.0826
     51 H15        14.6172   -25.8543    11.3630 H          1           0.0640
     52 H16        15.0213   -23.6153    13.4821 H          1           0.0664
     53 H17        14.7889   -25.3950    13.7730 H          1           0.0779
     54 H18        16.8843   -25.9465    12.6096 H          1           0.0709
     55 H19        17.3669   -24.2859    13.1712 H          1           0.0862
     56 H20        16.8288   -17.0011     8.5131 H          1           0.0685
     57 H21        16.2217   -18.6243     8.9189 H          1           0.0887
     58 H22        16.9977   -15.2850    10.2086 H          1           0.1316
     59 H23        16.1595   -14.4188    12.3517 H          1           0.1183
     60 H24        13.8305   -16.2215    15.8910 H          1           0.0734
     61 H25        12.2725   -15.4963    14.0876 H          1           0.0705
     62 H26        12.7361   -16.9199    13.1249 H          1           0.0801
     63 H27        10.6237   -17.3286    14.3574 H          1           0.0546
     64 H28        11.9172   -18.4081    14.9314 H          1           0.0644
     65 H29        15.4392   -18.0772    15.3841 H          1           0.1126
     66 H30        13.7561   -18.6714    15.4404 H          1           0.0667
@<TRIPOS>BOND
     1    1    2 1
     2    1   37 1
     3    1   38 1
     4    1   39 1
     5    2    3 1
     6    2   18 1
     7    3    4 1
     8    3   40 1
     9    3   41 1
    10    4    9 ar
    11    4    5 ar
    12    5    6 ar
    13    5   42 1
    14    6    7 ar
    15    6   43 1
    16    7    8 ar
    17    7   44 1
    18    8    9 ar
    19    8   45 1
    20    9   10 1
    21   10   11 2
    22   10   12 am
    23   12   13 1
    24   12   46 1
    25   13   14 1
    26   13   47 1
    27   13   48 1
    28   14   17 1
    29   14   15 1
    30   14   49 1
    31   15   16 1
    32   15   50 1
    33   15   51 1
    34   16   17 1
    35   16   52 1
    36   16   53 1
    37   17   54 1
    38   17   55 1
    39   18   19 1
    40   18   56 1
    41   18   57 1
    42   19   33 ar
    43   19   20 ar
    44   20   21 ar
    45   20   58 1
    46   21   22 ar
    47   21   59 1
    48   22   32 ar
    49   22   23 1
    50   23   24 1
    51   24   25 1
    52   24   30 1
    53   24   60 1
    54   25   26 1
    55   25   61 1
    56   25   62 1
    57   26   27 1
    58   26   63 1
    59   26   64 1
    60   27   28 1
    61   27   29 2
    62   30   31 1
    63   30   65 1
    64   30   66 1
    65   31   32 1
    66   32   33 ar
    67   33   34 1
    68   34   35 1
    69   34   36 2
