AVX38753_3, 3
##########                 Name:           AVX38753_0
##########          Protonation:                   61
##########               SMILES:   CC[NH+](Cc1ccccc1C(=O)NCc2ccccc2)Cc3ccc4c(c3C(=O)[O-])OC[C@H](O4)CCC(=O)[O-]
##########            Long Name:   ]methyl]-2-(3-oxido-3-oxo-propyl)-2,3-dihydro-1,4-benzodioxine-5-carboxylate
##########          FlexRecCode: 1
##########               Number:                  635
##########   Ligand Source File: /raid1/people/rgc/Examples/sampl4/screening/ligands/build_1//sampl4-hivint-00000
##########           GlobalRank: 70
##########                 Rank:                    1
##########               Setnum:                  384
##########             Matchnum:                10073
##########                Cloud:                    1
##########        Electrostatic:           -41.729698
##########        Van der Waals:           -24.114790
##########  Ligand Polar Desolv:            30.475683
########## Ligand Apolar Desolv:            -3.137850
##########      Internal Energy:             0.000000
##########      Receptor Energy: 0.0
########## Receptor Desolvation:             0.000000
########## Receptor Hydrophobic:             0.000000
##########         Total Energy: -38.51
##########        Ligand Charge:            -1.000000
##########            Arbitrary:    +999.9990
##########     heavy atom count:   40
##########           pose count:    1
##########        Ligand Energy:             0.000000
# num electro vdwattr vdwrepu polsolv apolsol rdesolv rhydroe totalscore fullpol fullapo
#   1   -5.59   -1.55    0.65    9.86   -0.14    0.00    0.00       3.25   29.31   -0.41
#   2    4.75   -0.91    0.17   -4.65   -0.05    0.00    0.00      -0.68  -16.25   -0.16
#   3   -5.13   -1.57    1.49    9.12   -0.13    0.00    0.00       3.78   30.99   -0.43
#   4   -2.44   -0.43    0.07    0.76   -0.05    0.00    0.00      -2.09    3.74   -0.25
#   5   -2.07   -0.55    0.05    0.41   -0.05    0.00    0.00      -2.21    1.56   -0.18
#   6    1.24   -0.73    0.07   -0.76   -0.05    0.00    0.00      -0.24   -2.02   -0.12
#   7    0.63   -1.39    0.33   -0.25   -0.05    0.00    0.00      -0.73   -0.55   -0.12
#   8  -10.65   -1.60    0.56    3.49    0.11    0.00    0.00      -8.09    8.74    0.27
#   9    2.56   -1.00    0.08   -0.22   -0.10    0.00    0.00       1.32   -0.65   -0.30
#  10   -2.38   -0.97    0.07    0.93   -0.10    0.00    0.00      -2.45    2.82   -0.30
#  11   18.69   -1.52    0.41   -4.90   -0.06    0.00    0.00      12.62  -13.12   -0.15
#  12  -26.79   -1.74    0.64    9.84   -0.22    0.00    0.00     -18.26   26.16   -0.59
#  13  -26.20   -2.67    1.67    6.52   -0.11    0.00    0.00     -20.78   14.53   -0.25
#  14   -1.58   -1.08    0.11    0.15   -0.07    0.00    0.00      -2.48    0.48   -0.23
#  15    0.44   -0.91    0.26   -0.04   -0.08    0.00    0.00      -0.33   -0.15   -0.28
#  16   -1.62   -0.50    0.03    0.03    0.01    0.00    0.00      -2.05    0.12    0.07
#  17    1.91   -0.01    0.00   -0.39    0.04    0.00    0.00       1.55   -2.90    0.29
#  18    0.00   -0.43    0.04    0.03   -0.07    0.00    0.00      -0.43    0.14   -0.37
#  19    0.32   -1.17    0.17    0.18   -0.10    0.00    0.00      -0.60    0.61   -0.35
#  20   -0.10   -0.97    0.18    0.21   -0.09    0.00    0.00      -0.78    0.80   -0.34
#  21    0.16   -0.25    0.02    0.01   -0.04    0.00    0.00      -0.09    0.08   -0.28
#  22   -0.26   -0.19    0.01   -0.02   -0.03    0.00    0.00      -0.49   -0.20   -0.31
#  23   -0.28   -0.23    0.01   -0.06   -0.03    0.00    0.00      -0.59   -0.65   -0.39
#  24   -0.09   -0.14    0.00   -0.03   -0.03    0.00    0.00      -0.28   -0.50   -0.47
#  25   -0.10   -0.05    0.00   -0.01   -0.01    0.00    0.00      -0.17   -0.24   -0.47
#  26   -0.11   -0.05    0.00    0.00   -0.01    0.00    0.00      -0.16    0.17   -0.44
#  27   -0.19   -0.11    0.00    0.03   -0.02    0.00    0.00      -0.29    0.53   -0.40
#  28    1.09   -0.16    0.01   -0.34   -0.04    0.00    0.00       0.56   -5.02   -0.63
#  29   -1.35   -0.46    0.09    0.96    0.03    0.00    0.00      -0.72    7.16    0.21
#  30   -1.15   -0.08    0.00    0.22    0.07    0.00    0.00      -0.94    7.76    2.32
#  31    0.28   -0.07    0.00   -0.13   -0.02    0.00    0.00       0.07   -3.16   -0.44
#  32   -0.19   -0.13    0.01    0.09   -0.02    0.00    0.00      -0.25    1.67   -0.37
#  33   -0.24   -0.51    0.18    0.19   -0.06    0.00    0.00      -0.44    1.38   -0.46
#  34   -0.28   -0.64    0.19    0.21   -0.09    0.00    0.00      -0.60    1.15   -0.47
#  35   -0.20   -0.33    0.05    0.11   -0.06    0.00    0.00      -0.42    0.92   -0.47
#  36   -0.17   -0.10    0.00    0.05   -0.02    0.00    0.00      -0.24    1.24   -0.47
#  37   -0.13   -0.06    0.00    0.04   -0.01    0.00    0.00      -0.16    1.68   -0.46
#  38   -1.10   -1.89    0.60    0.07   -0.13    0.00    0.00      -2.45    0.21   -0.39
#  39   -1.21   -2.08    0.59    0.54   -0.16    0.00    0.00      -2.33    1.50   -0.46
#  40    1.09   -1.23    0.16    0.04   -0.10    0.00    0.00      -0.04    0.13   -0.30
#  41   -4.68   -1.19    0.25    2.71    0.22    0.00    0.00      -2.69    7.60    0.62
#  42    0.62   -0.26    0.23   -0.39   -0.04    0.00    0.00       0.15   -2.48   -0.28
#  43    0.74   -0.07    0.00   -0.15   -0.02    0.00    0.00       0.50   -2.22   -0.27
#  44    2.17   -0.14    0.01   -0.13   -0.03    0.00    0.00       1.89   -1.23   -0.28
#  45    2.43   -0.29    0.08   -0.42   -0.05    0.00    0.00       1.75   -2.16   -0.28
#  46    1.46   -0.26    0.04   -0.48   -0.07    0.00    0.00       0.69   -1.80   -0.28
#  47    3.14   -1.07    1.49   -0.68   -0.13    0.00    0.00       2.75   -1.49   -0.28
#  48    3.33   -0.47    0.11   -1.46   -0.14    0.00    0.00       1.37   -2.99   -0.28
#  49    1.19   -0.24    0.06    0.22   -0.05    0.00    0.00       1.17    1.14   -0.27
#  50   -0.07   -0.81    1.22   -0.21   -0.05    0.00    0.00       0.08   -0.64   -0.15
#  51    0.12   -0.05    0.00    0.04   -0.01    0.00    0.00       0.10    0.93   -0.20
#  52   -0.38   -0.24    0.08    0.36   -0.05    0.00    0.00      -0.23    2.22   -0.28
#  53   -0.97   -0.49    0.16   -0.19   -0.07    0.00    0.00      -1.55   -0.56   -0.22
#  54    0.07   -0.09    0.01   -0.01   -0.02    0.00    0.00      -0.05   -0.15   -0.27
#  55    0.09   -0.27    0.04   -0.13   -0.07    0.00    0.00      -0.34   -0.51   -0.28
#  56    2.36   -0.13    0.04    0.00   -0.02    0.00    0.00       2.26    0.03   -0.14
#  57    0.63   -0.07    0.00    0.14   -0.02    0.00    0.00       0.70    2.32   -0.27
#  58    0.52   -0.09    0.01    0.23   -0.03    0.00    0.00       0.64    2.51   -0.28
#  59    0.10   -0.03    0.00    0.04   -0.01    0.00    0.00       0.10    1.50   -0.28
#  60    0.11   -0.01    0.00    0.00    0.00    0.00    0.00       0.11    0.58   -0.28
#  61    0.16    0.00    0.00    0.00    0.00    0.00    0.00       0.15   -0.25   -0.22
#  62    0.53    0.00    0.00   -0.04    0.00    0.00    0.00       0.50   -3.31    0.43
#  63    0.13   -0.01    0.00    0.00    0.00    0.00    0.00       0.12   -0.14   -0.28
#  64    0.17   -0.04    0.00   -0.02   -0.01    0.00    0.00       0.10   -0.68   -0.28
#  65    0.38   -0.22    0.19   -0.20   -0.04    0.00    0.00       0.10   -1.42   -0.28
#  66    0.37   -0.28    0.18   -0.26   -0.07    0.00    0.00      -0.06   -1.08   -0.28
#  67    0.24   -0.15    0.09   -0.09   -0.03    0.00    0.00       0.06   -0.90   -0.28
#  68    0.15   -0.01    0.00   -0.01    0.00    0.00    0.00       0.12   -1.20   -0.28
#  69    0.14    0.00    0.00   -0.01    0.00    0.00    0.00       0.13   -1.56   -0.28
#  70    0.87   -0.70    0.91    0.02   -0.08    0.00    0.00       1.02    0.07   -0.28
#  71    0.60   -0.81    0.62   -0.73   -0.11    0.00    0.00      -0.44   -1.77   -0.28

@<TRIPOS>MOLECULE
       AVX38753_0        61
   71    74     0     0     0



@<TRIPOS>ATOM
      1 O1         18.6589   -17.9509     8.5839 O.co2      1          -0.6990
      2 C1         19.0125   -18.4176     9.6534 C.2        1           0.4903
      3 O2         20.1986   -18.4815     9.9282 O.co2      1          -0.7073
      4 C2         17.9832   -18.9095    10.6381 C.3        1          -0.1784
      5 C3         17.1613   -20.0308     9.9992 C.3        1          -0.0837
      6 C4         18.0881   -21.1845     9.6107 C.3        1           0.0533
      7 C5         17.2665   -22.3346     9.0159 C.3        1           0.0184
      8 O3         16.3018   -22.7241     9.9987 O.3        1          -0.2612
      9 C6         16.7606   -22.9148    11.2620 C.ar       1           0.0917
     10 C7         15.9896   -23.6432    12.1792 C.ar       1          -0.0922
     11 C8         14.6889   -24.2005    11.7745 C.2        1           0.5284
     12 O4         13.6697   -23.5384    11.9137 O.co2      1          -0.6375
     13 O5         14.6270   -25.3260    11.2989 O.co2      1          -0.7101
     14 C9         16.4639   -23.8375    13.4811 C.ar       1          -0.1135
     15 C10        15.6429   -24.6195    14.4739 C.3        1           0.0607
     16 N1         15.6253   -23.9111    15.7606 N.4        1          -0.3537
     17 H1         16.5401   -23.5279    15.9463 H          1           0.4371
     18 C11        15.2608   -24.8489    16.8310 C.3        1           0.0284
     19 C12        16.4690   -25.6611    17.2203 C.2        1          -0.1681
     20 C13        17.2682   -25.2342    18.1663 C.2        1          -0.1476
     21 C14        14.6403   -22.8226    15.7068 C.3        1           0.0230
     22 C15        14.9465   -21.8142    16.7841 C.ar       1          -0.0832
     23 C16        16.2438   -21.3886    16.9841 C.ar       1          -0.1055
     24 C17        16.5266   -20.4630    17.9726 C.ar       1          -0.0939
     25 C18        15.5122   -19.9579    18.7668 C.ar       1          -0.1037
     26 C19        14.2110   -20.3748    18.5770 C.ar       1          -0.0826
     27 C20        13.9180   -21.3046    17.5778 C.ar       1          -0.1082
     28 C21        12.5248   -21.7515    17.3650 C.2        1           0.5399
     29 O6         11.9870   -21.5732    16.2897 O.2        1          -0.5107
     30 N2         11.8514   -22.3567    18.3633 N.am       1          -0.7077
     31 C22        10.4709   -22.7995    18.1524 C.3        1           0.1595
     32 C23        10.3841   -24.2895    18.3603 C.ar       1          -0.1093
     33 C24        10.5834   -25.1487    17.2959 C.ar       1          -0.0991
     34 C25        10.5036   -26.5155    17.4865 C.ar       1          -0.1221
     35 C26        10.2251   -27.0231    18.7418 C.ar       1          -0.1114
     36 C27        10.0266   -26.1640    19.8064 C.ar       1          -0.1224
     37 C28        10.1106   -24.7973    19.6166 C.ar       1          -0.0963
     38 C29        17.6817   -23.3142    13.8546 C.ar       1          -0.1140
     39 C30        18.4429   -22.5950    12.9479 C.ar       1          -0.1214
     40 C31        17.9885   -22.3945    11.6545 C.ar       1           0.0630
     41 O7         18.7507   -21.6887    10.7748 O.3        1          -0.2990
     42 H2         18.4845   -19.2886    11.5286 H          1           0.0539
     43 H3         17.3231   -18.0875    10.9148 H          1           0.0631
     44 H4         16.4168   -20.3867    10.7112 H          1           0.0737
     45 H5         16.6601   -19.6518     9.1086 H          1           0.0845
     46 H6         18.8251   -20.8392     8.8856 H          1           0.0766
     47 H7         16.7589   -21.9981     8.1119 H          1           0.0735
     48 H8         17.9202   -23.1758     8.7851 H          1           0.1195
     49 H9         14.6236   -24.7222    14.1016 H          1           0.1023
     50 H10        16.0814   -25.6081    14.6095 H          1           0.1587
     51 H11        14.9036   -24.2912    17.6967 H          1           0.1119
     52 H12        14.4736   -25.5150    16.4779 H          1           0.1197
     53 H13        16.6758   -26.5952    16.7193 H          1           0.1406
     54 H14        17.0612   -24.3000    18.6672 H          1           0.0938
     55 H15        18.1340   -25.8163    18.4453 H          1           0.1119
     56 H16        14.6870   -22.3380    14.7317 H          1           0.1637
     57 H17        13.6409   -23.2289    15.8630 H          1           0.1185
     58 H18        17.0400   -21.7792    16.3679 H          1           0.1375
     59 H19        17.5436   -20.1333    18.1252 H          1           0.1359
     60 H20        15.7397   -19.2361    19.5372 H          1           0.1364
     61 H21        13.4203   -19.9799    19.1975 H          1           0.1336
     62 H22        12.2807   -22.4990    19.2214 H          1           0.3987
     63 H23         9.8151   -22.2948    18.8619 H          1           0.0918
     64 H24        10.1625   -22.5559    17.1358 H          1           0.0801
     65 H25        10.8010   -24.7521    16.3152 H          1           0.1236
     66 H26        10.6587   -27.1867    16.6547 H          1           0.1241
     67 H27        10.1621   -28.0911    18.8906 H          1           0.1224
     68 H28         9.8087   -26.5607    20.7870 H          1           0.1238
     69 H29         9.9593   -24.1263    20.4491 H          1           0.1260
     70 H30        18.0452   -23.4650    14.8604 H          1           0.1203
     71 H31        19.3965   -22.1884    13.2509 H          1           0.1290
@<TRIPOS>BOND
     1    1    2 1
     2    2    3 2
     3    2    4 1
     4    4    5 1
     5    4   42 1
     6    4   43 1
     7    5    6 1
     8    5   44 1
     9    5   45 1
    10    6   41 1
    11    6    7 1
    12    6   46 1
    13    7    8 1
    14    7   47 1
    15    7   48 1
    16    8    9 1
    17    9   40 ar
    18    9   10 ar
    19   10   11 1
    20   10   14 ar
    21   11   12 1
    22   11   13 2
    23   14   15 1
    24   14   38 ar
    25   15   16 1
    26   15   49 1
    27   15   50 1
    28   16   17 1
    29   16   18 1
    30   16   21 1
    31   18   19 1
    32   18   51 1
    33   18   52 1
    34   19   20 2
    35   19   53 1
    36   20   54 1
    37   20   55 1
    38   21   22 1
    39   21   56 1
    40   21   57 1
    41   22   27 ar
    42   22   23 ar
    43   23   24 ar
    44   23   58 1
    45   24   25 ar
    46   24   59 1
    47   25   26 ar
    48   25   60 1
    49   26   27 ar
    50   26   61 1
    51   27   28 1
    52   28   29 2
    53   28   30 am
    54   30   31 1
    55   30   62 1
    56   31   32 1
    57   31   63 1
    58   31   64 1
    59   32   37 ar
    60   32   33 ar
    61   33   34 ar
    62   33   65 1
    63   34   35 ar
    64   34   66 1
    65   35   36 ar
    66   35   67 1
    67   36   37 ar
    68   36   68 1
    69   37   69 1
    70   38   39 ar
    71   38   70 1
    72   39   40 ar
    73   39   71 1
    74   40   41 1
