AVX38781_1, 3
##########                 Name:           AVX38781_0
##########          Protonation:                   61
##########               SMILES:   CC[NH+](Cc1ccccc1C(=O)NCC2CCCCC2)Cc3ccc4c(c3C(=O)[O-])OC[C@H](O4)CCC(=O)[O-]
##########            Long Name:   ]methyl]-2-(3-oxido-3-oxo-propyl)-2,3-dihydro-1,4-benzodioxine-5-carboxylate
##########          FlexRecCode: 1
##########               Number:                  587
##########   Ligand Source File: /raid1/people/rgc/Examples/sampl4/screening/ligands/build_1//sampl4-hivint-00000
##########           GlobalRank: 25
##########                 Rank:                    1
##########               Setnum:                  166
##########             Matchnum:                28595
##########                Cloud:                    1
##########        Electrostatic:           -47.483891
##########        Van der Waals:           -17.693787
##########  Ligand Polar Desolv:            24.057547
########## Ligand Apolar Desolv:            -2.479652
##########      Internal Energy:             0.000000
##########      Receptor Energy: 0.0
########## Receptor Desolvation:             0.000000
########## Receptor Hydrophobic:             0.000000
##########         Total Energy: -43.6
##########        Ligand Charge:            -1.000000
##########            Arbitrary:    +999.9990
##########     heavy atom count:   40
##########           pose count:    1
##########        Ligand Energy:             0.000000
# num electro vdwattr vdwrepu polsolv apolsol rdesolv rhydroe totalscore fullpol fullapo
#   1  -27.15   -1.66    1.93    6.89   -0.10    0.00    0.00     -20.08   29.41   -0.41
#   2   17.95   -1.15    0.32   -4.38   -0.04    0.00    0.00      12.71  -16.39   -0.16
#   3  -32.92   -2.08    1.16   10.96   -0.15    0.00    0.00     -23.03   31.16   -0.43
#   4   -3.94   -0.53    0.03    1.15   -0.08    0.00    0.00      -3.38    3.78   -0.25
#   5   -1.39   -0.75    0.14    0.48   -0.06    0.00    0.00      -1.57    1.57   -0.18
#   6    1.13   -0.79    0.08   -0.84   -0.05    0.00    0.00      -0.47   -2.07   -0.12
#   7    0.24   -1.16    0.34   -0.24   -0.05    0.00    0.00      -0.86   -0.56   -0.12
#   8   -2.80   -2.14    4.14    2.93    0.09    0.00    0.00       2.21    8.74    0.27
#   9    1.17   -0.98    0.25   -0.20   -0.09    0.00    0.00       0.15   -0.69   -0.30
#  10   -0.65   -0.79    0.12    0.71   -0.08    0.00    0.00      -0.69    2.82   -0.30
#  11    2.16   -1.00    0.37   -3.15   -0.04    0.00    0.00      -1.66  -13.16   -0.15
#  12   -1.70   -1.55    1.17    5.91   -0.13    0.00    0.00       3.70   26.20   -0.59
#  13   -2.38   -0.95    0.17    3.99   -0.07    0.00    0.00       0.75   14.55   -0.25
#  14   -0.66   -0.71    0.10    0.10   -0.05    0.00    0.00      -1.21    0.49   -0.23
#  15    0.10   -0.33    0.03   -0.02   -0.04    0.00    0.00      -0.27   -0.16   -0.28
#  16   -0.32   -0.14    0.00    0.01    0.00    0.00    0.00      -0.44    0.13    0.07
#  17    0.79    0.00    0.00   -0.09    0.01    0.00    0.00       0.72   -2.86    0.29
#  18    0.03   -0.08    0.00    0.01   -0.02    0.00    0.00      -0.06    0.14   -0.37
#  19   -0.16   -0.06    0.00    0.02   -0.01    0.00    0.00      -0.22    0.61   -0.35
#  20   -0.13   -0.04    0.00    0.01   -0.01    0.00    0.00      -0.16    0.77   -0.34
#  21    0.02   -0.08    0.00    0.00   -0.01    0.00    0.00      -0.06    0.08   -0.28
#  22   -0.06   -0.17    0.00   -0.01   -0.02    0.00    0.00      -0.26   -0.22   -0.31
#  23   -0.08   -0.24    0.01   -0.06   -0.04    0.00    0.00      -0.41   -0.67   -0.39
#  24   -0.07   -0.35    0.01   -0.07   -0.06    0.00    0.00      -0.55   -0.54   -0.47
#  25   -0.07   -0.68    0.05   -0.08   -0.11    0.00    0.00      -0.90   -0.34   -0.47
#  26   -0.05   -0.74    0.09    0.01   -0.10    0.00    0.00      -0.79    0.05   -0.44
#  27   -0.07   -0.29    0.01    0.05   -0.04    0.00    0.00      -0.35    0.44   -0.40
#  28    0.35   -0.24    0.01   -0.45   -0.06    0.00    0.00      -0.39   -4.65   -0.63
#  29   -0.29   -0.15    0.00    0.47    0.01    0.00    0.00       0.05    7.15    0.22
#  30   -0.54   -0.27    0.02    0.73    0.24    0.00    0.00       0.18    6.75    2.20
#  31    0.09   -0.10    0.00   -0.14   -0.02    0.00    0.00      -0.17   -2.38   -0.38
#  32   -0.07   -0.21    0.02    0.10   -0.02    0.00    0.00      -0.18    0.85   -0.15
#  33   -0.09   -0.26    0.03    0.12   -0.03    0.00    0.00      -0.24    0.84   -0.22
#  34   -0.08   -0.36    0.06    0.10   -0.04    0.00    0.00      -0.32    0.70   -0.25
#  35   -0.07   -0.16    0.02    0.08   -0.02    0.00    0.00      -0.15    1.15   -0.25
#  36   -0.06   -0.21    0.05    0.10   -0.02    0.00    0.00      -0.15    1.25   -0.25
#  37   -0.07   -0.10    0.01    0.10   -0.01    0.00    0.00      -0.08    1.76   -0.22
#  38   -1.22   -0.88    0.08    0.06   -0.10    0.00    0.00      -2.05    0.25   -0.39
#  39   -2.60   -1.32    0.30    0.46   -0.14    0.00    0.00      -3.29    1.56   -0.46
#  40    1.35   -1.04    0.16    0.04   -0.09    0.00    0.00       0.43    0.15   -0.30
#  41   -8.88   -1.10    0.19    2.70    0.22    0.00    0.00      -6.87    7.73    0.62
#  42    0.93   -0.12    0.00   -0.29   -0.03    0.00    0.00       0.49   -2.47   -0.28
#  43    1.33   -0.23    0.02   -0.49   -0.06    0.00    0.00       0.57   -2.21   -0.27
#  44    1.15   -0.17    0.04   -0.17   -0.04    0.00    0.00       0.81   -1.25   -0.28
#  45    0.81   -0.48    0.23   -0.73   -0.09    0.00    0.00      -0.26   -2.20   -0.28
#  46    1.80   -0.33    0.05   -0.68   -0.11    0.00    0.00       0.75   -1.81   -0.28
#  47    0.58   -0.52    0.19   -0.62   -0.12    0.00    0.00      -0.48   -1.49   -0.28
#  48    1.73   -0.49    0.36   -1.02   -0.09    0.00    0.00       0.48   -3.03   -0.28
#  49    0.11   -0.11    0.01    0.12   -0.03    0.00    0.00       0.10    1.08   -0.27
#  50    0.15   -0.13    0.01   -0.08   -0.02    0.00    0.00      -0.07   -0.65   -0.15
#  51    0.12   -0.03    0.00    0.02    0.00    0.00    0.00       0.11    0.93   -0.20
#  52    0.39   -0.03    0.00    0.06   -0.01    0.00    0.00       0.41    2.18   -0.28
#  53    0.15   -0.01    0.00   -0.01    0.00    0.00    0.00       0.13   -0.56   -0.22
#  54    0.08   -0.01    0.00    0.00    0.00    0.00    0.00       0.07   -0.13   -0.27
#  55    0.09    0.00    0.00    0.00    0.00    0.00    0.00       0.08   -0.50   -0.28
#  56    0.13   -0.02    0.00    0.00    0.00    0.00    0.00       0.10    0.02   -0.14
#  57    0.09   -0.01    0.00    0.03    0.00    0.00    0.00       0.10    2.25   -0.27
#  58    0.11   -0.06    0.00    0.16   -0.02    0.00    0.00       0.20    2.47   -0.28
#  59    0.11   -0.07    0.00    0.11   -0.02    0.00    0.00       0.13    1.53   -0.28
#  60    0.08   -0.24    0.02    0.20   -0.08    0.00    0.00      -0.01    0.74   -0.28
#  61    0.08   -0.36    0.15    0.00   -0.05    0.00    0.00      -0.17    0.01   -0.22
#  62    0.33   -0.01    0.00   -0.20    0.03    0.00    0.00       0.15   -2.26    0.38
#  63    0.06   -0.01    0.00    0.00    0.00    0.00    0.00       0.05    0.18   -0.28
#  64    0.07   -0.02    0.00   -0.01    0.00    0.00    0.00       0.04   -0.34   -0.28
#  65    0.05   -0.17    0.04   -0.12   -0.03    0.00    0.00      -0.24   -0.96   -0.28
#  66    0.06   -0.03    0.00   -0.01   -0.01    0.00    0.00       0.01   -0.32   -0.28
#  67    0.04   -0.18    0.07   -0.09   -0.04    0.00    0.00      -0.18   -0.56   -0.24
#  68    0.04   -0.07    0.00   -0.03   -0.02    0.00    0.00      -0.08   -0.46   -0.28
#  69    0.04   -0.38    0.27   -0.09   -0.05    0.00    0.00      -0.21   -0.46   -0.28
#  70    0.04   -0.02    0.00    0.00    0.00    0.00    0.00       0.02   -0.37   -0.28
#  71    0.03   -0.04    0.00   -0.03   -0.01    0.00    0.00      -0.05   -0.66   -0.28
#  72    0.03   -0.02    0.00   -0.01   -0.01    0.00    0.00      -0.01   -0.61   -0.28
#  73    0.03   -0.28    0.30   -0.09   -0.03    0.00    0.00      -0.06   -0.81   -0.28
#  74    0.04   -0.02    0.00   -0.01    0.00    0.00    0.00       0.01   -0.53   -0.28
#  75    0.05   -0.01    0.00    0.00    0.00    0.00    0.00       0.03   -0.50   -0.28
#  76    0.89   -0.16    0.01    0.00   -0.05    0.00    0.00       0.69    0.01   -0.28
#  77    3.86   -0.43    0.16   -0.46   -0.07    0.00    0.00       3.06   -1.82   -0.28

@<TRIPOS>MOLECULE
       AVX38781_0        61
   77    80     0     0     0



@<TRIPOS>ATOM
      1 O1         15.3504   -20.9059    11.4963 O.co2      1          -0.6990
      2 C1         15.7433   -22.0481    11.3308 C.2        1           0.4902
      3 O2         15.1093   -22.8147    10.6261 O.co2      1          -0.7073
      4 C2         17.0161   -22.5103    11.9923 C.3        1          -0.1781
      5 C3         18.1832   -21.6448    11.5132 C.3        1          -0.0836
      6 C4         18.3224   -21.7715     9.9948 C.3        1           0.0537
      7 C5         19.7127   -21.2947     9.5579 C.3        1           0.0184
      8 O3         19.8606   -19.9425    10.0027 O.3        1          -0.2607
      9 C6         18.8330   -19.0966     9.7362 C.ar       1           0.0923
     10 C7         19.0409   -17.7110     9.7914 C.ar       1          -0.0916
     11 C8         20.3678   -17.1749    10.1350 C.2        1           0.5285
     12 O4         20.6539   -16.9532    11.3036 O.co2      1          -0.6375
     13 O5         21.1844   -16.9511     9.2521 O.co2      1          -0.7102
     14 C9         17.9798   -16.8408     9.5174 C.ar       1          -0.1134
     15 C10        18.1935   -15.3501     9.5734 C.3        1           0.0607
     16 N1         17.9162   -14.8664    10.9325 N.4        1          -0.3535
     17 H1         18.2801   -15.5250    11.6047 H          1           0.4372
     18 C11        16.4653   -14.7295    11.1170 C.3        1           0.0285
     19 C12        16.1808   -14.2332    12.5111 C.2        1          -0.1681
     20 C13        15.5474   -13.0999    12.6864 C.2        1          -0.1476
     21 C14        18.5601   -13.5606    11.1283 C.3        1           0.0231
     22 C15        20.0232   -13.7620    11.4280 C.ar       1          -0.0838
     23 C16        20.9417   -13.7954    10.3988 C.ar       1          -0.1053
     24 C17        22.2850   -13.9802    10.6722 C.ar       1          -0.0945
     25 C18        22.7170   -14.1328    11.9781 C.ar       1          -0.1037
     26 C19        21.8093   -14.1009    13.0161 C.ar       1          -0.0836
     27 C20        20.4529   -13.9095    12.7476 C.ar       1          -0.1082
     28 C21        19.4751   -13.8688    13.8557 C.2        1           0.5386
     29 O6         19.2014   -12.8098    14.3861 O.2        1          -0.5111
     30 N2         18.8875   -15.0057    14.2780 N.am       1          -0.7102
     31 C22        17.9187   -14.9654    15.3763 C.3        1           0.1211
     32 C23        18.6492   -15.1507    16.7078 C.3        1          -0.0949
     33 C24        18.9378   -16.6369    16.9288 C.3        1          -0.1153
     34 C25        19.6683   -16.8221    18.2602 C.3        1          -0.1170
     35 C26        18.7924   -16.2977    19.3998 C.3        1          -0.1228
     36 C27        18.5037   -14.8115    19.1789 C.3        1          -0.1167
     37 C28        17.7732   -14.6263    17.8474 C.3        1          -0.1150
     38 C29        16.7403   -17.3477     9.1960 C.ar       1          -0.1141
     39 C30        16.5359   -18.7167     9.1414 C.ar       1          -0.1215
     40 C31        17.5761   -19.5920     9.4087 C.ar       1           0.0630
     41 O7         17.3592   -20.9345     9.3469 O.3        1          -0.2991
     42 H2         16.9168   -22.4201    13.0740 H          1           0.0538
     43 H3         17.2043   -23.5514    11.7304 H          1           0.0629
     44 H4         17.9950   -20.6036    11.7751 H          1           0.0735
     45 H5         19.1038   -21.9792    11.9915 H          1           0.0844
     46 H6         18.1728   -22.8087     9.6948 H          1           0.0764
     47 H7         20.4792   -21.9207    10.0146 H          1           0.0730
     48 H8         19.7946   -21.3382     8.4718 H          1           0.1193
     49 H9         19.2260   -15.1210     9.3099 H          1           0.1022
     50 H10        17.5213   -14.8601     8.8691 H          1           0.1586
     51 H11        16.0722   -14.0179    10.3907 H          1           0.1117
     52 H12        15.9875   -15.6983    10.9715 H          1           0.1196
     53 H13        16.4989   -14.8118    13.3657 H          1           0.1406
     54 H14        15.2294   -12.5212    11.8318 H          1           0.0937
     55 H15        15.3435   -12.7442    13.6856 H          1           0.1120
     56 H16        18.4536   -12.9635    10.2226 H          1           0.1637
     57 H17        18.0861   -13.0431    11.9623 H          1           0.1182
     58 H18        20.6109   -13.6772     9.3775 H          1           0.1372
     59 H19        22.9998   -14.0058     9.8631 H          1           0.1357
     60 H20        23.7672   -14.2774    12.1847 H          1           0.1362
     61 H21        22.1477   -14.2202    14.0349 H          1           0.1330
     62 H22        19.1059   -15.8507    13.8548 H          1           0.3966
     63 H23        17.4063   -14.0033    15.3737 H          1           0.0834
     64 H24        17.1898   -15.7656    15.2475 H          1           0.0718
     65 H25        19.5881   -14.5973    16.6872 H          1           0.0748
     66 H26        17.9989   -17.1901    16.9495 H          1           0.0672
     67 H27        19.5619   -17.0103    16.1169 H          1           0.0552
     68 H28        19.8740   -17.8808    18.4177 H          1           0.0602
     69 H29        20.6073   -16.2687    18.2396 H          1           0.0592
     70 H30        17.8535   -16.8510    19.4206 H          1           0.0647
     71 H31        19.3128   -16.4297    20.3485 H          1           0.0600
     72 H32        17.8796   -14.4380    19.9907 H          1           0.0655
     73 H33        19.4426   -14.2583    19.1582 H          1           0.0597
     74 H34        17.5676   -13.5675    17.6900 H          1           0.0709
     75 H35        16.8344   -15.1797    17.8680 H          1           0.0685
     76 H36        15.9229   -16.6740     8.9856 H          1           0.1201
     77 H37        15.5600   -19.1040     8.8888 H          1           0.1288
@<TRIPOS>BOND
     1    1    2 1
     2    2    3 2
     3    2    4 1
     4    4    5 1
     5    4   42 1
     6    4   43 1
     7    5    6 1
     8    5   44 1
     9    5   45 1
    10    6   41 1
    11    6    7 1
    12    6   46 1
    13    7    8 1
    14    7   47 1
    15    7   48 1
    16    8    9 1
    17    9   40 ar
    18    9   10 ar
    19   10   11 1
    20   10   14 ar
    21   11   12 1
    22   11   13 2
    23   14   15 1
    24   14   38 ar
    25   15   16 1
    26   15   49 1
    27   15   50 1
    28   16   17 1
    29   16   18 1
    30   16   21 1
    31   18   19 1
    32   18   51 1
    33   18   52 1
    34   19   20 2
    35   19   53 1
    36   20   54 1
    37   20   55 1
    38   21   22 1
    39   21   56 1
    40   21   57 1
    41   22   27 ar
    42   22   23 ar
    43   23   24 ar
    44   23   58 1
    45   24   25 ar
    46   24   59 1
    47   25   26 ar
    48   25   60 1
    49   26   27 ar
    50   26   61 1
    51   27   28 1
    52   28   29 2
    53   28   30 am
    54   30   31 1
    55   30   62 1
    56   31   32 1
    57   31   63 1
    58   31   64 1
    59   32   37 1
    60   32   33 1
    61   32   65 1
    62   33   34 1
    63   33   66 1
    64   33   67 1
    65   34   35 1
    66   34   68 1
    67   34   69 1
    68   35   36 1
    69   35   70 1
    70   35   71 1
    71   36   37 1
    72   36   72 1
    73   36   73 1
    74   37   74 1
    75   37   75 1
    76   38   39 ar
    77   38   76 1
    78   39   40 ar
    79   39   77 1
    80   40   41 1
