AVX38742_3, 3
##########                 Name:           AVX38742_0
##########          Protonation:                  100
##########               SMILES:   c1ccc\2c(c1)C/C(=N\O)/C2=C/c3ccc4c(c3C(=O)[O-])OC[C@@H](O4)CCC(=O)[O-]
##########            Long Name:   ]methyl]-2-(3-oxido-3-oxo-propyl)-2,3-dihydro-1,4-benzodioxine-5-carboxylate
##########          FlexRecCode: 1
##########               Number:                  140
##########   Ligand Source File: /raid1/people/rgc/Examples/sampl4/screening/ligands/build_1//sampl4-hivint-00000
##########           GlobalRank: 22
##########                 Rank:                    1
##########               Setnum:                    3
##########             Matchnum:                14450
##########                Cloud:                    1
##########        Electrostatic:           -55.455376
##########        Van der Waals:           -16.909683
##########  Ligand Polar Desolv:            29.595785
########## Ligand Apolar Desolv:            -1.211806
##########      Internal Energy:             0.000000
##########      Receptor Energy: 0.0
########## Receptor Desolvation:             0.000000
########## Receptor Hydrophobic:             0.000000
##########         Total Energy: -43.98
##########        Ligand Charge:            -2.000000
##########            Arbitrary:    +999.9990
##########     heavy atom count:   30
##########           pose count:    1
##########        Ligand Energy:             0.000000
# num electro vdwattr vdwrepu polsolv apolsol rdesolv rhydroe totalscore fullpol fullapo
#   1  -10.86   -6.85   10.98    4.46    0.40    0.00    0.00      -1.88    6.92    0.62
#   2  -10.45   -3.88    1.83    4.95    0.63    0.00    0.00      -6.92    8.92    1.13
#   3    5.81   -1.89    0.35   -1.53   -0.38    0.00    0.00       2.36   -3.27   -0.82
#   4   -1.62   -0.89    0.13    0.30   -0.11    0.00    0.00      -2.19    0.72   -0.27
#   5   -2.21   -0.83    0.11    0.41   -0.12    0.00    0.00      -2.64    1.51   -0.44
#   6   -1.50   -0.92    0.46    0.22   -0.09    0.00    0.00      -1.84    1.08   -0.47
#   7   -1.40   -0.88    0.43    0.17   -0.09    0.00    0.00      -1.76    0.94   -0.47
#   8   -1.36   -0.63    0.10    0.49   -0.10    0.00    0.00      -1.50    2.38   -0.47
#   9   -1.75   -0.67    0.05    0.83   -0.10    0.00    0.00      -1.64    3.31   -0.39
#  10   -0.46   -0.80    0.05    0.81   -0.12    0.00    0.00      -0.51    2.78   -0.40
#  11   -3.64   -1.29    0.16    0.67   -0.16    0.00    0.00      -4.27    1.68   -0.41
#  12    2.34   -1.72    0.35    0.56   -0.14    0.00    0.00       1.38    1.36   -0.34
#  13   -1.34   -1.34    0.19    0.25   -0.11    0.00    0.00      -2.34    0.68   -0.30
#  14   -0.82   -2.66    1.19    0.55   -0.11    0.00    0.00      -1.84    1.49   -0.29
#  15   -0.45   -1.88    0.61    0.55   -0.15    0.00    0.00      -1.32    1.71   -0.46
#  16    0.25   -0.95    0.15   -0.20   -0.08    0.00    0.00      -0.83   -0.81   -0.30
#  17   -0.43   -0.47    0.03    1.63    0.11    0.00    0.00       0.87    9.08    0.62
#  18    0.08   -0.35    0.04   -0.37   -0.02    0.00    0.00      -0.63   -2.11   -0.12
#  19   -0.12   -0.13    0.00    0.13   -0.01    0.00    0.00      -0.12    1.66   -0.18
#  20   -0.19   -0.14    0.00    0.36   -0.02    0.00    0.00       0.02    4.58   -0.24
#  21    0.52   -0.08    0.00   -0.53    0.00    0.00    0.00      -0.09  -18.31   -0.16
#  22   -0.77   -0.05    0.00    0.72   -0.01    0.00    0.00      -0.11   32.43   -0.41
#  23   -0.66   -0.05    0.00    0.73   -0.01    0.00    0.00       0.02   34.43   -0.43
#  24    0.09   -0.38    0.04   -0.09   -0.03    0.00    0.00      -0.36   -0.44   -0.12
#  25   -4.55   -0.84    0.12    3.58    0.08    0.00    0.00      -1.61   12.15    0.27
#  26    1.17   -0.96    0.15   -0.50   -0.08    0.00    0.00      -0.21   -1.78   -0.30
#  27   -2.66   -1.07    0.14    2.72   -0.14    0.00    0.00      -1.01    8.13   -0.41
#  28   21.18   -1.75    0.55   -8.64   -0.07    0.00    0.00      11.28  -22.42   -0.17
#  29  -34.12   -3.16    3.63   11.84   -0.12    0.00    0.00     -21.92   33.90   -0.34
#  30  -29.69   -2.75    2.18   17.49   -0.28    0.00    0.00     -13.06   36.38   -0.59
#  31    8.53   -0.22    0.07   -4.45    0.94    0.00    0.00       4.87   -5.90    1.25
#  32    1.72   -0.28    0.05   -0.61   -0.08    0.00    0.00       0.79   -2.04   -0.28
#  33    3.01   -0.49    0.43   -0.64   -0.08    0.00    0.00       2.23   -2.28   -0.28
#  34    1.34   -0.14    0.03   -0.25   -0.03    0.00    0.00       0.94   -2.08   -0.28
#  35    0.79   -0.13    0.03   -0.25   -0.03    0.00    0.00       0.41   -2.10   -0.28
#  36    0.99   -0.08    0.00   -0.19   -0.02    0.00    0.00       0.71   -2.51   -0.28
#  37    2.11   -0.12    0.00   -0.24   -0.02    0.00    0.00       1.74   -2.08   -0.16
#  38    4.09   -0.47    0.12   -1.29   -0.10    0.00    0.00       2.34   -3.11   -0.24
#  39    0.59   -1.59    2.90   -1.90   -0.12    0.00    0.00      -0.12   -4.41   -0.27
#  40    0.14   -0.53    0.26   -1.30   -0.08    0.00    0.00      -1.50   -4.46   -0.28
#  41   -0.18   -0.28    0.10   -0.55   -0.06    0.00    0.00      -0.95   -2.70   -0.28
#  42    0.10   -0.02    0.00   -0.03   -0.01    0.00    0.00       0.05   -1.62   -0.28
#  43    0.13   -0.03    0.00   -0.08   -0.01    0.00    0.00       0.02   -2.95   -0.28
#  44    0.06   -0.08    0.01   -0.26   -0.02    0.00    0.00      -0.30   -3.12   -0.28
#  45    0.06   -0.04    0.00   -0.08   -0.01    0.00    0.00      -0.07   -2.68   -0.27
#  46    0.45   -0.14    0.04   -0.66   -0.04    0.00    0.00      -0.36   -4.48   -0.28
#  47    0.20   -0.08    0.01   -0.19   -0.02    0.00    0.00      -0.09   -2.30   -0.28

@<TRIPOS>MOLECULE
       AVX38742_0       100
   47    50     0     0     0



@<TRIPOS>ATOM
      1 O1         17.9201   -23.1625     7.0289 O.3        1          -0.4221
      2 N1         17.5578   -23.5893     8.3295 N.2        1          -0.3314
      3 C1         17.5916   -22.7528     9.3190 C.2        1           0.1934
      4 C2         17.9843   -21.2952     9.2615 C.3        1          -0.0641
      5 C3         17.8614   -20.7602    10.6671 C.ar       1          -0.1082
      6 C4         18.0953   -19.5004    11.1835 C.ar       1          -0.1057
      7 C5         17.9078   -19.2549    12.5314 C.ar       1          -0.1305
      8 C6         17.4850   -20.2705    13.3708 C.ar       1          -0.1151
      9 C7         17.2484   -21.5315    12.8676 C.ar       1          -0.1056
     10 C8         17.4354   -21.7878    11.5049 C.ar       1          -0.0212
     11 C9         17.2493   -23.0307    10.7228 C.2        1          -0.1346
     12 C10        16.8349   -24.2293    11.2191 C.2        1           0.0913
     13 C11        16.2990   -24.3128    12.5801 C.ar       1          -0.0718
     14 C12        17.1530   -24.5552    13.6585 C.ar       1          -0.1053
     15 C13        16.6475   -24.6320    14.9391 C.ar       1          -0.1279
     16 C14        15.2880   -24.4696    15.1767 C.ar       1           0.0483
     17 O2         14.8247   -24.5438    16.4546 O.3        1          -0.2997
     18 C15        13.4173   -24.7490    16.6183 C.3        1           0.0491
     19 C16        13.0190   -24.4610    18.0671 C.3        1          -0.0814
     20 C17        13.7808   -25.4024    19.0022 C.3        1          -0.1796
     21 C18        13.3885   -25.1187    20.4294 C.2        1           0.4916
     22 O3         12.2257   -25.2360    20.7767 O.co2      1          -0.7013
     23 O4         14.2339   -24.7720    21.2366 O.co2      1          -0.7106
     24 C19        12.6788   -23.7874    15.6775 C.3        1           0.0193
     25 O5         13.0846   -24.0747    14.3351 O.3        1          -0.2593
     26 C20        14.4161   -24.2298    14.1192 C.ar       1           0.0780
     27 C21        14.9132   -24.1426    12.8120 C.ar       1          -0.1079
     28 C22        14.0027   -23.8816    11.6906 C.2        1           0.5215
     29 O6         13.7716   -22.7305    11.3451 O.co2      1          -0.6813
     30 O7         13.4745   -24.8153    11.1011 O.co2      1          -0.6597
     31 H1         17.8636   -23.8559     6.3573 H          1           0.3987
     32 H2         19.0129   -21.1990     8.9139 H          1           0.0934
     33 H3         17.3125   -20.7535     8.5956 H          1           0.0933
     34 H4         18.4260   -18.7047    10.5324 H          1           0.1151
     35 H5         18.0920   -18.2682    12.9299 H          1           0.1186
     36 H6         17.3405   -20.0746    14.4231 H          1           0.1225
     37 H7         16.9189   -22.3221    13.5255 H          1           0.1401
     38 H8         16.9015   -25.1183    10.6094 H          1           0.1520
     39 H9         18.2120   -24.6832    13.4888 H          1           0.1276
     40 H10        17.3156   -24.8205    15.7665 H          1           0.1308
     41 H11        13.1642   -25.7786    16.3652 H          1           0.0775
     42 H12        13.2642   -23.4278    18.3129 H          1           0.0722
     43 H13        11.9472   -24.6187    18.1875 H          1           0.0823
     44 H14        13.5356   -26.4356    18.7565 H          1           0.0553
     45 H15        14.8527   -25.2449    18.8820 H          1           0.0647
     46 H16        11.6028   -23.9315    15.7752 H          1           0.1167
     47 H17        12.9368   -22.7583    15.9272 H          1           0.0710
@<TRIPOS>BOND
     1    1    2 1
     2    1   31 1
     3    2    3 2
     4    3   11 1
     5    3    4 1
     6    4    5 1
     7    4   32 1
     8    4   33 1
     9    5   10 ar
    10    5    6 ar
    11    6    7 ar
    12    6   34 1
    13    7    8 ar
    14    7   35 1
    15    8    9 ar
    16    8   36 1
    17    9   10 ar
    18    9   37 1
    19   10   11 1
    20   11   12 2
    21   12   13 1
    22   12   38 1
    23   13   27 ar
    24   13   14 ar
    25   14   15 ar
    26   14   39 1
    27   15   16 ar
    28   15   40 1
    29   16   26 ar
    30   16   17 1
    31   17   18 1
    32   18   19 1
    33   18   24 1
    34   18   41 1
    35   19   20 1
    36   19   42 1
    37   19   43 1
    38   20   21 1
    39   20   44 1
    40   20   45 1
    41   21   22 1
    42   21   23 2
    43   24   25 1
    44   24   46 1
    45   24   47 1
    46   25   26 1
    47   26   27 ar
    48   27   28 1
    49   28   29 1
    50   28   30 2
