AVX38674_0, 3
##########                 Name:           AVX38674_0
##########          Protonation:                  100
##########               SMILES:   CN(Cc1ccc2c(c1C(=O)[O-])OCO2)C(=O)N[C@H](c3ccccc3)C(=O)NCc4ccccc4
##########            Long Name:   1-phenyl-ethyl]carbamoyl-methyl-amino]methyl]-1,3-benzodioxole-4-carboxylate
##########          FlexRecCode: 1
##########               Number:                  415
##########   Ligand Source File: /raid1/people/rgc/Examples/sampl4/screening/ligands/build_1//sampl4-hivint-00000
##########           GlobalRank: 29
##########                 Rank:                    1
##########               Setnum:                  249
##########             Matchnum:                11282
##########                Cloud:                    1
##########        Electrostatic:           -40.865116
##########        Van der Waals:           -15.617620
##########  Ligand Polar Desolv:            16.511362
########## Ligand Apolar Desolv:            -2.955696
##########      Internal Energy:             0.000000
##########      Receptor Energy: 0.0
########## Receptor Desolvation:             0.000000
########## Receptor Hydrophobic:             0.000000
##########         Total Energy: -42.93
##########        Ligand Charge:            -1.000000
##########            Arbitrary:    +999.9990
##########     heavy atom count:   35
##########           pose count:    1
##########        Ligand Energy:             0.000000
# num electro vdwattr vdwrepu polsolv apolsol rdesolv rhydroe totalscore fullpol fullapo
#   1    2.96   -1.25    0.56   -0.25   -0.20    0.00    0.00       1.82   -0.64   -0.51
#   2  -19.19   -1.53    1.05    2.88    0.33    0.00    0.00     -16.47   10.32    1.19
#   3    4.22   -0.49    0.07   -1.30   -0.07    0.00    0.00       2.43   -5.46   -0.31
#   4   -1.32   -0.90    0.06    0.41   -0.13    0.00    0.00      -1.88    1.31   -0.41
#   5   -2.44   -1.77    0.34    0.60   -0.17    0.00    0.00      -3.44    1.47   -0.42
#   6   -2.36   -3.22    2.06    0.30   -0.23    0.00    0.00      -3.46    0.60   -0.47
#   7   -0.08   -2.85    1.54   -0.12   -0.16    0.00    0.00      -1.68   -0.24   -0.33
#   8   -8.30   -4.05    4.18    2.83    0.30    0.00    0.00      -5.04    4.89    0.52
#   9    5.12   -2.38    1.36   -1.65    0.01    0.00    0.00       2.46   -3.00    0.02
#  10   -9.61   -1.90    0.54    4.18    0.15    0.00    0.00      -6.63    9.21    0.34
#  11    2.60   -1.53    0.27   -0.34   -0.13    0.00    0.00       0.87   -0.82   -0.32
#  12   -3.88   -0.96    0.11    1.87   -0.12    0.00    0.00      -2.99    6.39   -0.41
#  13   17.86   -1.12    0.53   -4.30   -0.04    0.00    0.00      12.93  -18.31   -0.17
#  14  -32.67   -3.44    7.89    8.58   -0.10    0.00    0.00     -19.75   27.78   -0.33
#  15  -14.92   -0.50    0.05    5.68   -0.10    0.00    0.00      -9.79   31.20   -0.56
#  16   13.53   -1.69    1.76   -2.91   -0.47    0.00    0.00      10.22  -11.91   -1.92
#  17  -10.26   -2.06    1.46    4.29    0.11    0.00    0.00      -6.45   14.47    0.37
#  18   -4.72   -0.58    0.15    1.25    0.25    0.00    0.00      -3.64    8.36    1.68
#  19    0.46   -0.18    0.02   -0.21   -0.03    0.00    0.00       0.06   -2.02   -0.25
#  20    0.86   -0.13    0.00   -0.21   -0.03    0.00    0.00       0.50   -4.92   -0.60
#  21   -0.74   -0.05    0.00    0.17    0.01    0.00    0.00      -0.62    6.71    0.38
#  22   -0.96   -0.20    0.00    0.29    0.15    0.00    0.00      -0.71    4.35    2.29
#  23    0.16   -0.12    0.00   -0.06   -0.03    0.00    0.00      -0.04   -0.97   -0.44
#  24   -0.09   -0.44    0.02    0.10   -0.06    0.00    0.00      -0.48    0.59   -0.37
#  25    0.27   -1.16    0.33    0.14   -0.12    0.00    0.00      -0.54    0.51   -0.45
#  26    0.54   -2.29    0.66    0.19   -0.19    0.00    0.00      -1.08    0.48   -0.47
#  27   -0.03   -3.04    1.44    0.16   -0.19    0.00    0.00      -1.67    0.39   -0.47
#  28   -0.10   -1.93    0.81    0.17   -0.15    0.00    0.00      -1.21    0.51   -0.47
#  29   -0.08   -0.69    0.10    0.11   -0.09    0.00    0.00      -0.65    0.54   -0.45
#  30   -0.21   -0.21    0.03    0.11   -0.03    0.00    0.00      -0.32    1.28   -0.33
#  31   -0.15   -0.08    0.00    0.05   -0.02    0.00    0.00      -0.19    1.36   -0.44
#  32   -0.16   -0.04    0.00    0.02   -0.01    0.00    0.00      -0.18    1.24   -0.47
#  33   -0.16   -0.05    0.00    0.02   -0.01    0.00    0.00      -0.20    0.95   -0.47
#  34   -0.22   -0.17    0.02    0.07   -0.03    0.00    0.00      -0.33    0.98   -0.47
#  35   -0.24   -0.45    0.15    0.12   -0.05    0.00    0.00      -0.47    1.10   -0.45
#  36    2.16   -0.55    0.48   -0.32   -0.10    0.00    0.00       1.67   -0.86   -0.28
#  37    3.10   -0.49    0.25   -0.30   -0.07    0.00    0.00       2.49   -0.96   -0.22
#  38    2.71   -0.29    0.05   -0.27   -0.09    0.00    0.00       2.11   -0.87   -0.28
#  39    2.41   -0.13    0.04   -0.09   -0.02    0.00    0.00       2.20   -0.88   -0.23
#  40    1.31   -0.12    0.00   -0.23   -0.03    0.00    0.00       0.93   -1.83   -0.24
#  41    1.39   -0.56    0.32   -0.95   -0.08    0.00    0.00       0.12   -2.65   -0.21
#  42    2.20   -1.09    1.30   -1.27   -0.15    0.00    0.00       0.98   -2.37   -0.28
#  43    2.14   -0.68    0.51   -1.07   -0.13    0.00    0.00       0.77   -2.39   -0.28
#  44    1.89   -1.44    2.34   -1.07   -0.18    0.00    0.00       1.54   -1.67   -0.28
#  45    3.07   -0.01    0.00   -0.29    0.03    0.00    0.00       2.80   -4.22    0.37
#  46    0.32   -0.07    0.01   -0.09   -0.02    0.00    0.00       0.15   -1.26   -0.26
#  47    0.89    0.00    0.00   -0.09    0.02    0.00    0.00       0.82   -2.09    0.55
#  48    0.07   -0.02    0.00   -0.01    0.00    0.00    0.00       0.04   -0.45   -0.28
#  49    0.08   -0.03    0.00   -0.01   -0.01    0.00    0.00       0.03   -0.46   -0.28
#  50   -0.76   -0.38    0.34   -0.09   -0.05    0.00    0.00      -0.94   -0.49   -0.28
#  51   -1.00   -0.77    0.34   -0.12   -0.13    0.00    0.00      -1.67   -0.26   -0.28
#  52    0.38   -1.48    2.35   -0.10   -0.14    0.00    0.00       1.01   -0.19   -0.28
#  53    0.00   -0.76    1.00   -0.09   -0.09    0.00    0.00       0.06   -0.29   -0.28
#  54    0.09   -0.09    0.01   -0.04   -0.02    0.00    0.00      -0.06   -0.50   -0.28
#  55    0.15   -0.01    0.00   -0.02    0.00    0.00    0.00       0.12   -1.18   -0.26
#  56    0.13    0.00    0.00   -0.01    0.00    0.00    0.00       0.11   -1.06   -0.28
#  57    0.14    0.00    0.00   -0.01    0.00    0.00    0.00       0.13   -0.84   -0.28
#  58    0.22   -0.03    0.00   -0.03   -0.01    0.00    0.00       0.15   -0.86   -0.28
#  59    0.34   -0.25    0.19   -0.15   -0.04    0.00    0.00       0.09   -1.09   -0.28

@<TRIPOS>MOLECULE
       AVX38674_0       100
   59    62     0     0     0



@<TRIPOS>ATOM
      1 C1         13.5358   -23.7463    12.0890 C.3        1           0.0746
      2 N1         14.0871   -23.2017    13.3323 N.am       1          -0.6272
      3 C2         15.5252   -22.9468    13.4461 C.3        1           0.1943
      4 C3         16.2063   -23.3265    12.1566 C.ar       1          -0.0519
      5 C4         16.6760   -24.6086    11.9774 C.ar       1          -0.1226
      6 C5         17.3037   -24.9670    10.7949 C.ar       1          -0.1018
      7 C6         17.4648   -24.0402     9.7807 C.ar       1          -0.0029
      8 O1         18.0320   -24.1228     8.5441 O.3        1          -0.3192
      9 C7         18.3126   -22.7760     8.1343 C.3        1           0.2047
     10 O2         17.2795   -22.0454     8.8122 O.3        1          -0.2769
     11 C8         16.9949   -22.7389     9.9458 C.ar       1           0.0774
     12 C9         16.3565   -22.3776    11.1383 C.ar       1          -0.1203
     13 C10        15.8509   -21.0077    11.3223 C.2        1           0.5221
     14 O3         14.7070   -20.7282    10.9910 O.co2      1          -0.6800
     15 O4         16.5748   -20.1485    11.8066 O.co2      1          -0.6710
     16 C11        13.2711   -22.9352    14.3715 C.2        1           0.7080
     17 O5         12.0776   -23.1467    14.2771 O.2        1          -0.5758
     18 N2         13.7783   -22.4342    15.5152 N.am       1          -0.7312
     19 C12        12.8915   -22.1445    16.6448 C.3        1           0.1903
     20 C13        13.3132   -22.9635    17.8375 C.2        1           0.5214
     21 O6         12.7045   -22.8708    18.8823 O.2        1          -0.5301
     22 N3         14.3666   -23.7987    17.7430 N.am       1          -0.7187
     23 C14        14.7765   -24.5949    18.9025 C.3        1           0.1621
     24 C15        15.9699   -25.4389    18.5357 C.ar       1          -0.1101
     25 C16        15.7864   -26.7061    18.0149 C.ar       1          -0.0985
     26 C17        16.8811   -27.4803    17.6785 C.ar       1          -0.1220
     27 C18        18.1592   -26.9871    17.8625 C.ar       1          -0.1119
     28 C19        18.3427   -25.7195    18.3827 C.ar       1          -0.1219
     29 C20        17.2480   -24.9436    18.7150 C.ar       1          -0.0996
     30 C21        12.9755   -20.6791    16.9864 C.ar       1          -0.0966
     31 C22        13.9128   -20.2352    17.9004 C.ar       1          -0.0937
     32 C23        13.9898   -18.8911    18.2138 C.ar       1          -0.1190
     33 C24        13.1299   -17.9908    17.6130 C.ar       1          -0.1149
     34 C25        12.1932   -18.4346    16.6984 C.ar       1          -0.1178
     35 C26        12.1190   -19.7782    16.3818 C.ar       1          -0.1013
     36 H1         12.4575   -23.8674    12.1921 H          1           0.0554
     37 H2         13.7478   -23.0623    11.2673 H          1           0.0643
     38 H3         13.9921   -24.7145    11.8828 H          1           0.0778
     39 H4         15.6917   -21.8885    13.6471 H          1           0.1138
     40 H5         15.9360   -23.5408    14.2626 H          1           0.1063
     41 H6         16.5549   -25.3393    12.7635 H          1           0.1250
     42 H7         17.6692   -25.9749    10.6647 H          1           0.1232
     43 H8         19.2997   -22.4623     8.4741 H          1           0.1234
     44 H9         18.2209   -22.6698     7.0534 H          1           0.0745
     45 H10        14.7305   -22.2654    15.5905 H          1           0.4045
     46 H11        11.8658   -22.3964    16.3753 H          1           0.1226
     47 H12        14.8534   -23.8728    16.9072 H          1           0.4047
     48 H13        15.0407   -23.9299    19.7247 H          1           0.0788
     49 H14        13.9540   -25.2417    19.2081 H          1           0.0782
     50 H15        14.7878   -27.0914    17.8710 H          1           0.1242
     51 H16        16.7377   -28.4706    17.2722 H          1           0.1238
     52 H17        19.0145   -27.5923    17.6005 H          1           0.1227
     53 H18        19.3414   -25.3343    18.5268 H          1           0.1242
     54 H19        17.3913   -23.9519    19.1178 H          1           0.1250
     55 H20        14.5846   -20.9384    18.3698 H          1           0.1195
     56 H21        14.7217   -18.5443    18.9285 H          1           0.1220
     57 H22        13.1896   -16.9408    17.8585 H          1           0.1211
     58 H23        11.5211   -17.7313    16.2293 H          1           0.1234
     59 H24        11.3897   -20.1244    15.6644 H          1           0.1239
@<TRIPOS>BOND
     1    1    2 1
     2    1   36 1
     3    1   37 1
     4    1   38 1
     5    2    3 1
     6    2   16 am
     7    3    4 1
     8    3   39 1
     9    3   40 1
    10    4   12 ar
    11    4    5 ar
    12    5    6 ar
    13    5   41 1
    14    6    7 ar
    15    6   42 1
    16    7   11 ar
    17    7    8 1
    18    8    9 1
    19    9   10 1
    20    9   43 1
    21    9   44 1
    22   10   11 1
    23   11   12 ar
    24   12   13 1
    25   13   14 1
    26   13   15 2
    27   16   17 2
    28   16   18 am
    29   18   19 1
    30   18   45 1
    31   19   20 1
    32   19   30 1
    33   19   46 1
    34   20   21 2
    35   20   22 am
    36   22   23 1
    37   22   47 1
    38   23   24 1
    39   23   48 1
    40   23   49 1
    41   24   29 ar
    42   24   25 ar
    43   25   26 ar
    44   25   50 1
    45   26   27 ar
    46   26   51 1
    47   27   28 ar
    48   27   52 1
    49   28   29 ar
    50   28   53 1
    51   29   54 1
    52   30   35 ar
    53   30   31 ar
    54   31   32 ar
    55   31   55 1
    56   32   33 ar
    57   32   56 1
    58   33   34 ar
    59   33   57 1
    60   34   35 ar
    61   34   58 1
    62   35   59 1
