AVX38786_1, 3
##########                 Name:           AVX38786_0
##########          Protonation:                   77
##########               SMILES:   +](Cc1ccccc1C(=O)NCc2ccc(cc2)OC)Cc3ccc4c(c3C(=O)[O-])OC[C@@H](O4)CCC(=O)[O-]
##########            Long Name:   ]methyl]-2-(3-oxido-3-oxo-propyl)-2,3-dihydro-1,4-benzodioxine-5-carboxylate
##########          FlexRecCode: 1
##########               Number:                  757
##########   Ligand Source File: /raid1/people/rgc/Examples/sampl4/screening/ligands/build_1//sampl4-hivint-00000
##########           GlobalRank: 42
##########                 Rank:                    1
##########               Setnum:                  306
##########             Matchnum:                10833
##########                Cloud:                    1
##########        Electrostatic:           -58.422546
##########        Van der Waals:           -14.690714
##########  Ligand Polar Desolv:            34.616421
########## Ligand Apolar Desolv:            -2.530512
##########      Internal Energy:             0.000000
##########      Receptor Energy: 0.0
########## Receptor Desolvation:             0.000000
########## Receptor Hydrophobic:             0.000000
##########         Total Energy: -41.03
##########        Ligand Charge:            -1.000000
##########            Arbitrary:    +999.9990
##########     heavy atom count:   40
##########           pose count:    1
##########        Ligand Energy:             0.000000
# num electro vdwattr vdwrepu polsolv apolsol rdesolv rhydroe totalscore fullpol fullapo
#   1    0.03   -0.21    0.01    0.00    0.00    0.00    0.00      -0.16    0.01    0.03
#   2   -0.52   -0.44    0.03    0.25    0.15    0.00    0.00      -0.53    1.48    0.93
#   3    0.22   -0.25    0.01   -0.04   -0.03    0.00    0.00      -0.10   -0.37   -0.31
#   4   -0.41   -0.35    0.02    0.04   -0.06    0.00    0.00      -0.77    0.24   -0.42
#   5   -0.12   -0.21    0.01    0.00   -0.04    0.00    0.00      -0.36    0.00   -0.45
#   6   -0.22   -0.08    0.00    0.00   -0.01    0.00    0.00      -0.31    0.10   -0.37
#   7    0.21   -0.03    0.00    0.00   -0.01    0.00    0.00       0.17   -0.12   -0.44
#   8   -0.74   -0.03    0.00    0.00    0.04    0.00    0.00      -0.74   -0.18    2.32
#   9    0.58   -0.06    0.00   -0.02   -0.02    0.00    0.00       0.49   -0.87   -0.65
#  10   -0.97   -0.08    0.00    0.10    0.01    0.00    0.00      -0.94    2.34    0.32
#  11   -0.10   -0.10    0.00    0.00   -0.02    0.00    0.00      -0.21    0.07   -0.41
#  12   -0.05   -0.16    0.01   -0.01   -0.03    0.00    0.00      -0.24   -0.11   -0.44
#  13   -0.07   -0.47    0.07   -0.02   -0.06    0.00    0.00      -0.55   -0.17   -0.47
#  14   -0.04   -0.47    0.05    0.00   -0.07    0.00    0.00      -0.53    0.00   -0.47
#  15   -0.10   -0.26    0.01    0.01   -0.03    0.00    0.00      -0.37    0.08   -0.34
#  16   -0.04   -0.16    0.01    0.00   -0.03    0.00    0.00      -0.22    0.04   -0.39
#  17    0.09   -0.10    0.00    0.00   -0.02    0.00    0.00      -0.02   -0.01   -0.26
#  18   -1.64   -0.29    0.03   -0.02    0.02    0.00    0.00      -1.90   -0.13    0.16
#  19    1.68   -0.01    0.00   -0.14    0.03    0.00    0.00       1.56   -1.74    0.33
#  20   -0.24   -0.74    0.47   -0.08   -0.08    0.00    0.00      -0.66   -0.42   -0.41
#  21    0.57   -0.21    0.01   -0.02   -0.04    0.00    0.00       0.31   -0.13   -0.29
#  22   -2.03   -0.47    0.04    0.05   -0.05    0.00    0.00      -2.46    0.30   -0.30
#  23   -1.38   -0.45    0.05   -0.02   -0.07    0.00    0.00      -1.87   -0.13   -0.40
#  24   -1.72   -0.53    0.04    0.16   -0.09    0.00    0.00      -2.14    0.78   -0.46
#  25    1.29   -0.67    0.04    0.02   -0.08    0.00    0.00       0.60    0.06   -0.30
#  26   -4.94   -0.80    0.05    2.00    0.20    0.00    0.00      -3.49    6.31    0.62
#  27    1.09   -0.91    0.11   -0.60   -0.05    0.00    0.00      -0.35   -1.59   -0.12
#  28   -2.95   -0.98    0.29    0.50   -0.07    0.00    0.00      -3.21    1.37   -0.18
#  29   -4.62   -0.97    0.27    1.38   -0.09    0.00    0.00      -4.04    3.61   -0.24
#  30   16.97   -1.78    0.44   -7.06   -0.07    0.00    0.00       8.50  -15.59   -0.16
#  31  -28.98   -2.23    0.60   15.73   -0.23    0.00    0.00     -15.10   28.34   -0.41
#  32  -22.87   -2.22    1.16   12.13   -0.17    0.00    0.00     -11.97   30.57   -0.43
#  33    0.45   -1.38    0.46   -0.21   -0.05    0.00    0.00      -0.73   -0.48   -0.12
#  34   -7.95   -1.00    0.08    3.18    0.11    0.00    0.00      -5.57    7.97    0.27
#  35    2.24   -0.75    0.05   -0.10   -0.08    0.00    0.00       1.36   -0.37   -0.30
#  36   -2.87   -0.65    0.05    0.73   -0.09    0.00    0.00      -2.83    3.30   -0.40
#  37   13.22   -1.28    0.33   -3.68   -0.05    0.00    0.00       8.55  -12.07   -0.15
#  38  -23.68   -2.83    2.20    5.35   -0.11    0.00    0.00     -19.07   14.58   -0.30
#  39  -11.83   -1.27    0.24    8.57   -0.21    0.00    0.00      -4.50   24.37   -0.59
#  40   -0.07   -0.05    0.00    0.00   -0.01    0.00    0.00      -0.12    0.14   -0.45
#  41   -0.18   -0.10    0.00    0.02   -0.02    0.00    0.00      -0.27    0.68   -0.46
#  42    0.08   -0.11    0.01    0.01   -0.03    0.00    0.00      -0.03    0.11   -0.27
#  43    0.07   -0.04    0.00    0.00   -0.01    0.00    0.00       0.02    0.08   -0.26
#  44    0.11   -0.03    0.00    0.00   -0.01    0.00    0.00       0.08    0.18   -0.28
#  45    0.85   -0.13    0.01    0.02   -0.03    0.00    0.00       0.72    0.15   -0.22
#  46    0.34   -0.06    0.01    0.02   -0.02    0.00    0.00       0.30    0.35   -0.28
#  47    0.09    0.00    0.00    0.00    0.00    0.00    0.00       0.08   -0.13   -0.28
#  48    0.12   -0.01    0.00    0.00    0.00    0.00    0.00       0.11   -0.03   -0.28
#  49    0.34    0.00    0.00    0.01    0.00    0.00    0.00       0.35    0.96    0.44
#  50    0.09   -0.02    0.00    0.01    0.00    0.00    0.00       0.08    0.71   -0.22
#  51    0.06   -0.20    0.06    0.07   -0.03    0.00    0.00      -0.04    0.58   -0.28
#  52    0.07   -0.15    0.02    0.02   -0.04    0.00    0.00      -0.07    0.17   -0.28
#  53    0.09   -0.05    0.00    0.00   -0.01    0.00    0.00       0.04   -0.01   -0.18
#  54    0.32   -0.02    0.00   -0.01   -0.01    0.00    0.00       0.29   -0.36   -0.26
#  55    0.18   -0.03    0.00    0.02   -0.01    0.00    0.00       0.16    0.57   -0.23
#  56    0.76   -0.82    2.76    0.12   -0.05    0.00    0.00       2.77    0.53   -0.23
#  57    0.45   -0.11    0.01    0.21   -0.03    0.00    0.00       0.53    1.86   -0.28
#  58    0.11   -0.27    0.14    0.15   -0.03    0.00    0.00       0.11    0.83   -0.18
#  59    1.44   -0.04    0.00   -0.02   -0.01    0.00    0.00       1.37   -0.59   -0.20
#  60    1.11   -0.08    0.00    0.07   -0.02    0.00    0.00       1.09    1.05   -0.27
#  61    0.93   -0.05    0.00    0.06   -0.02    0.00    0.00       0.92    0.93   -0.28
#  62    1.39   -0.08    0.00   -0.10   -0.02    0.00    0.00       1.19   -1.22   -0.28
#  63    1.24   -0.46    0.11   -0.58   -0.10    0.00    0.00       0.22   -1.63   -0.28
#  64    3.05   -0.26    0.06   -0.29   -0.06    0.00    0.00       2.49   -1.29   -0.28
#  65    4.26   -1.06    3.77   -0.63   -0.09    0.00    0.00       6.24   -1.97   -0.28
#  66    0.91   -0.89    2.29   -0.76   -0.09    0.00    0.00       1.46   -2.28   -0.28
#  67    1.19   -0.18    0.02   -0.38   -0.05    0.00    0.00       0.61   -2.22   -0.27
#  68    2.09   -0.92    1.22   -0.96   -0.10    0.00    0.00       1.32   -2.63   -0.28
#  69    2.26   -0.54    0.20   -0.64   -0.11    0.00    0.00       1.16   -1.57   -0.28
#  70    0.12    0.00    0.00    0.00    0.00    0.00    0.00       0.12   -0.18   -0.28
#  71    0.13   -0.01    0.00   -0.01    0.00    0.00    0.00       0.11   -0.49   -0.28

@<TRIPOS>MOLECULE
       AVX38786_0        77
   71    74     0     0     0



@<TRIPOS>ATOM
      1 C1         10.7056   -13.5952     9.5224 C.3        1           0.0258
      2 O1         11.4309   -14.7824     9.8492 O.3        1          -0.3161
      3 C2         12.0182   -14.8292    11.0739 C.ar       1           0.1381
      4 C3         12.7412   -15.9502    11.4553 C.ar       1          -0.2113
      5 C4         13.3375   -15.9953    12.7005 C.ar       1          -0.0580
      6 C5         13.2132   -14.9249    13.5671 C.ar       1          -0.1532
      7 C6         13.8644   -14.9769    14.9251 C.3        1           0.1661
      8 N1         15.2218   -14.4330    14.8369 N.am       1          -0.7176
      9 C7         16.2579   -15.2488    14.5581 C.2        1           0.5590
     10 O2         16.0660   -16.4357    14.3798 O.2        1          -0.5336
     11 C8         17.6277   -14.6997    14.4693 C.ar       1          -0.1206
     12 C9         18.2031   -14.0689    15.5735 C.ar       1          -0.0734
     13 C10        19.4817   -13.5591    15.4840 C.ar       1          -0.1169
     14 C11        20.1937   -13.6718    14.3028 C.ar       1          -0.0706
     15 C12        19.6292   -14.2958    13.2047 C.ar       1          -0.1431
     16 C13        18.3532   -14.8150    13.2828 C.ar       1          -0.0522
     17 C14        17.7422   -15.4996    12.0873 C.3        1           0.0506
     18 N2         18.0568   -16.9339    12.1304 N.4        1          -0.3733
     19 H1         17.9866   -17.2652    13.0808 H          1           0.4293
     20 C15        19.4231   -17.1506    11.6361 C.3        1          -0.0634
     21 C16        17.1076   -17.6691    11.2841 C.3        1           0.0590
     22 C17        17.0938   -19.1208    11.6886 C.ar       1          -0.1330
     23 C18        17.0404   -19.4642    13.0211 C.ar       1          -0.1129
     24 C19        17.0283   -20.7962    13.4013 C.ar       1          -0.1203
     25 C20        17.0695   -21.7985    12.4457 C.ar       1           0.0659
     26 O3         17.0609   -23.1024    12.8365 O.3        1          -0.2954
     27 C21        16.7156   -24.0696    11.8397 C.3        1           0.0487
     28 C22        15.2223   -23.9759    11.5203 C.3        1          -0.0829
     29 C23        14.4230   -24.7098    12.5988 C.3        1          -0.1807
     30 C24        12.9520   -24.6176    12.2842 C.2        1           0.4904
     31 O4         12.5227   -25.0735    11.2381 O.co2      1          -0.6998
     32 O5         12.1913   -24.0872    13.0757 O.co2      1          -0.7060
     33 C25        17.5374   -23.7498    10.5854 C.3        1           0.0181
     34 O6         17.1597   -22.4402    10.1489 O.3        1          -0.2585
     35 C26        17.1216   -21.4687    11.0962 C.ar       1           0.0885
     36 C27        17.1294   -20.1206    10.7103 C.ar       1          -0.1257
     37 C28        17.1802   -19.7593     9.2844 C.2        1           0.5226
     38 O7         16.1424   -19.6100     8.6540 O.co2      1          -0.7091
     39 O8         18.2600   -19.6085     8.7296 O.co2      1          -0.6285
     40 C29        12.4927   -13.8069    13.1895 C.ar       1          -0.0575
     41 C30        11.8988   -13.7548    11.9433 C.ar       1          -0.1532
     42 H2         10.2885   -13.6886     8.5198 H          1           0.0569
     43 H3          9.8979   -13.4531    10.2403 H          1           0.0573
     44 H4         11.3781   -12.7380     9.5579 H          1           0.1023
     45 H5         12.8380   -16.7868    10.7792 H          1           0.1307
     46 H6         13.9011   -16.8673    12.9977 H          1           0.1275
     47 H7         13.2811   -14.3854    15.6307 H          1           0.0821
     48 H8         13.9088   -16.0108    15.2674 H          1           0.0798
     49 H9         15.3749   -13.4858    14.9792 H          1           0.4024
     50 H10        17.6484   -13.9797    16.4958 H          1           0.1330
     51 H11        19.9282   -13.0708    16.3377 H          1           0.1375
     52 H12        21.1942   -13.2705    14.2376 H          1           0.1390
     53 H13        20.1901   -14.3801    12.2855 H          1           0.1297
     54 H14        16.6607   -15.3642    12.1046 H          1           0.1509
     55 H15        18.1481   -15.0659    11.1734 H          1           0.1474
     56 H16        19.6566   -18.2147    11.6680 H          1           0.1217
     57 H17        19.4989   -16.7926    10.6093 H          1           0.1168
     58 H18        20.1275   -16.6050    12.2640 H          1           0.1161
     59 H19        16.1097   -17.2483    11.4071 H          1           0.1659
     60 H20        17.4111   -17.5857    10.2405 H          1           0.1109
     61 H21        17.0081   -18.6906    13.7741 H          1           0.1286
     62 H22        16.9868   -21.0550    14.4491 H          1           0.1365
     63 H23        16.9554   -25.0711    12.1971 H          1           0.0829
     64 H24        14.9212   -22.9287    11.4943 H          1           0.0739
     65 H25        15.0289   -24.4338    10.5501 H          1           0.0869
     66 H26        14.7239   -25.7571    12.6248 H          1           0.0565
     67 H27        14.6163   -24.2520    13.5690 H          1           0.0635
     68 H28        18.6007   -23.7678    10.8249 H          1           0.1243
     69 H29        17.3190   -24.4777     9.8041 H          1           0.0756
     70 H30        12.3973   -12.9720    13.8679 H          1           0.1337
     71 H31        11.3393   -12.8797    11.6474 H          1           0.1344
@<TRIPOS>BOND
     1    1    2 1
     2    1   42 1
     3    1   43 1
     4    1   44 1
     5    2    3 1
     6    3   41 ar
     7    3    4 ar
     8    4    5 ar
     9    4   45 1
    10    5    6 ar
    11    5   46 1
    12    6    7 1
    13    6   40 ar
    14    7    8 1
    15    7   47 1
    16    7   48 1
    17    8    9 am
    18    8   49 1
    19    9   10 2
    20    9   11 1
    21   11   16 ar
    22   11   12 ar
    23   12   13 ar
    24   12   50 1
    25   13   14 ar
    26   13   51 1
    27   14   15 ar
    28   14   52 1
    29   15   16 ar
    30   15   53 1
    31   16   17 1
    32   17   18 1
    33   17   54 1
    34   17   55 1
    35   18   19 1
    36   18   20 1
    37   18   21 1
    38   20   56 1
    39   20   57 1
    40   20   58 1
    41   21   22 1
    42   21   59 1
    43   21   60 1
    44   22   36 ar
    45   22   23 ar
    46   23   24 ar
    47   23   61 1
    48   24   25 ar
    49   24   62 1
    50   25   35 ar
    51   25   26 1
    52   26   27 1
    53   27   28 1
    54   27   33 1
    55   27   63 1
    56   28   29 1
    57   28   64 1
    58   28   65 1
    59   29   30 1
    60   29   66 1
    61   29   67 1
    62   30   31 1
    63   30   32 2
    64   33   34 1
    65   33   68 1
    66   33   69 1
    67   34   35 1
    68   35   36 ar
    69   36   37 1
    70   37   38 1
    71   37   39 2
    72   40   41 ar
    73   40   70 1
    74   41   71 1
