AVX40811_0, 3
##########                 Name:           AVX40811_0
##########          Protonation:                  100
##########               SMILES:   CC(C)C[C@@H](Cc1ccc2c(c1C(=O)[O-])OCO2)CNC(=O)c3cccnc3
##########            Long Name:   l-2-[(pyridine-3-carbonylamino)methyl]pentyl]-1,3-benzodioxole-4-carboxylate
##########          FlexRecCode: 1
##########               Number:                   12
##########   Ligand Source File: /raid1/people/rgc/Examples/sampl4/screening/ligands/build_1//sampl4-hivint-00000
##########           GlobalRank: 92
##########                 Rank:                    1
##########               Setnum:                    2
##########             Matchnum:                17068
##########                Cloud:                    1
##########        Electrostatic:           -32.070549
##########        Van der Waals:           -15.931012
##########  Ligand Polar Desolv:            14.596632
########## Ligand Apolar Desolv:            -1.387572
##########      Internal Energy:             0.000000
##########      Receptor Energy: 0.0
########## Receptor Desolvation:             0.000000
########## Receptor Hydrophobic:             0.000000
##########         Total Energy: -34.79
##########        Ligand Charge:            -1.000000
##########            Arbitrary:    +999.9990
##########     heavy atom count:   28
##########           pose count:    1
##########        Ligand Energy:             0.000000
# num electro vdwattr vdwrepu polsolv apolsol rdesolv rhydroe totalscore fullpol fullapo
#   1   -0.39   -0.13    0.00    0.08   -0.01    0.00    0.00      -0.44    1.05   -0.18
#   2   -0.38   -0.13    0.01    0.10   -0.01    0.00    0.00      -0.41    1.26   -0.15
#   3   -0.26   -0.05    0.00    0.09   -0.01    0.00    0.00      -0.23    2.28   -0.17
#   4   -0.53   -0.15    0.01    0.11   -0.02    0.00    0.00      -0.58    1.22   -0.17
#   5   -0.78   -0.28    0.02    0.21   -0.01    0.00    0.00      -0.85    1.22   -0.08
#   6    1.07   -0.62    0.13   -0.65   -0.09    0.00    0.00      -0.16   -2.70   -0.37
#   7   -5.61   -0.71    0.18    2.19    0.27    0.00    0.00      -3.68   12.11    1.50
#   8    1.99   -0.54    0.12   -1.37   -0.10    0.00    0.00       0.11   -9.41   -0.66
#   9   -0.86   -0.46    0.07    1.67    0.06    0.00    0.00       0.47   11.99    0.40
#  10   -0.41   -0.27    0.02    0.30   -0.04    0.00    0.00      -0.39    2.99   -0.41
#  11   -0.06   -0.27    0.02    0.04   -0.05    0.00    0.00      -0.32    0.37   -0.45
#  12   -0.28   -0.14    0.00    0.04   -0.03    0.00    0.00      -0.40    0.75   -0.48
#  13    0.10   -0.08    0.00   -0.02   -0.03    0.00    0.00      -0.03   -0.78   -0.98
#  14   -0.41   -0.07    0.00    0.16    0.06    0.00    0.00      -0.26    5.68    2.04
#  15    0.12   -0.12    0.00   -0.07   -0.05    0.00    0.00      -0.11   -1.50   -0.93
#  16   -1.24   -0.58    0.42    0.20   -0.03    0.00    0.00      -1.23    1.21   -0.17
#  17   -0.79   -0.72    0.11    0.13   -0.07    0.00    0.00      -1.33    0.57   -0.31
#  18   -2.52   -0.92    0.06    0.32   -0.12    0.00    0.00      -3.18    1.02   -0.40
#  19   -2.10   -1.72    0.36    0.20   -0.19    0.00    0.00      -3.45    0.50   -0.47
#  20   -0.13   -1.84    0.45    0.05   -0.14    0.00    0.00      -1.61    0.11   -0.33
#  21   -9.36   -3.04    1.91    2.72    0.28    0.00    0.00      -7.48    4.99    0.52
#  22    5.71   -2.22    1.09   -1.68    0.01    0.00    0.00       2.90   -3.11    0.02
#  23  -10.27   -1.92    0.48    4.33    0.15    0.00    0.00      -7.22    9.51    0.34
#  24    2.53   -1.28    0.19   -0.13   -0.12    0.00    0.00       1.20   -0.33   -0.32
#  25   -3.79   -0.83    0.10    1.52   -0.10    0.00    0.00      -3.11    5.96   -0.41
#  26   15.78   -0.89    0.21   -3.97   -0.04    0.00    0.00      11.10  -17.51   -0.16
#  27  -26.27   -1.91    1.47    7.31   -0.08    0.00    0.00     -19.48   25.22   -0.29
#  28  -12.91   -0.44    0.02    5.90   -0.10    0.00    0.00      -7.52   32.02   -0.55
#  29    0.24   -0.06    0.00   -0.02   -0.01    0.00    0.00       0.14   -0.53   -0.28
#  30    0.05   -0.03    0.00   -0.02   -0.01    0.00    0.00      -0.01   -0.56   -0.28
#  31    0.09   -0.03    0.00   -0.01   -0.01    0.00    0.00       0.05   -0.47   -0.28
#  32    0.27   -0.10    0.03   -0.09   -0.02    0.00    0.00       0.10   -0.95   -0.17
#  33    0.10   -0.01    0.00   -0.01    0.00    0.00    0.00       0.07   -0.67   -0.28
#  34    0.10   -0.01    0.00    0.00    0.00    0.00    0.00       0.09   -0.09   -0.19
#  35    0.06   -0.01    0.00   -0.01    0.00    0.00    0.00       0.03   -1.07   -0.28
#  36    0.27   -0.03    0.00   -0.03   -0.01    0.00    0.00       0.20   -0.79   -0.21
#  37    0.15   -0.04    0.00   -0.04   -0.01    0.00    0.00       0.07   -1.11   -0.28
#  38    0.80   -0.11    0.01   -0.04   -0.02    0.00    0.00       0.64   -0.46   -0.16
#  39    0.42   -0.27    0.06   -0.04   -0.07    0.00    0.00       0.10   -0.15   -0.28
#  40    0.64   -0.27    0.08   -0.38   -0.07    0.00    0.00      -0.01   -1.61   -0.28
#  41    4.30   -0.01    0.00   -0.69    0.02    0.00    0.00       3.62   -6.67    0.18
#  42    0.84   -0.08    0.01   -0.13   -0.02    0.00    0.00       0.61   -1.49   -0.27
#  43    0.17   -0.03    0.00   -0.01   -0.01    0.00    0.00       0.12   -0.32   -0.28
#  44    0.13   -0.01    0.00   -0.01    0.00    0.00    0.00       0.11   -0.55   -0.28
#  45    0.14   -0.02    0.00   -0.03    0.00    0.00    0.00       0.09   -1.91   -0.22
#  46    1.13   -0.33    0.54   -0.28   -0.04    0.00    0.00       1.01   -1.95   -0.28
#  47    2.34   -0.25    0.33   -0.08   -0.03    0.00    0.00       2.31   -0.61   -0.21
#  48    1.58   -0.17    0.01   -0.32   -0.05    0.00    0.00       1.05   -1.78   -0.28
#  49    1.72   -0.61    0.27   -0.71   -0.11    0.00    0.00       0.55   -1.79   -0.28
#  50    2.35   -0.88    1.25   -1.19   -0.14    0.00    0.00       1.39   -2.35   -0.28
#  51    2.09   -1.07    0.77   -1.04   -0.18    0.00    0.00       0.57   -1.61   -0.28

@<TRIPOS>MOLECULE
       AVX40811_0       100
   51    53     0     0     0



@<TRIPOS>ATOM
      1 C1         15.2743   -22.1243    17.0350 C.3        1          -0.1430
      2 C2         15.0135   -20.7300    16.4618 C.3        1          -0.1166
      3 C3         14.5193   -19.8048    17.5756 C.3        1          -0.1642
      4 C4         16.3095   -20.1705    15.8715 C.3        1          -0.1163
      5 C5         16.8037   -21.0956    14.7576 C.3        1          -0.0838
      6 C6         18.0998   -20.5361    14.1674 C.3        1           0.1304
      7 N1         17.8500   -19.2011    13.6185 N.am       1          -0.7126
      8 C7         18.0007   -18.1126    14.3990 C.2        1           0.5547
      9 O1         18.3439   -18.2388    15.5581 O.2        1          -0.5392
     10 C8         17.7488   -16.7653    13.8450 C.ar       1          -0.1816
     11 C9         17.9077   -16.5171    12.4761 C.ar       1          -0.0186
     12 C10        17.6590   -15.2391    12.0081 C.ar       1          -0.1807
     13 C11        17.2649   -14.2567    12.8989 C.ar       1           0.1162
     14 N2         17.1232   -14.5194    14.1840 N.ar       1          -0.4850
     15 C12        17.3430   -15.7209    14.6766 C.ar       1           0.1329
     16 C13        15.7410   -21.1859    13.6607 C.3        1          -0.0615
     17 C14        16.2277   -22.0971    12.5634 C.ar       1          -0.0318
     18 C15        16.5244   -23.4128    12.8418 C.ar       1          -0.1338
     19 C16        16.9725   -24.2581    11.8392 C.ar       1          -0.1030
     20 C17        17.1266   -23.7893    10.5470 C.ar       1          -0.0045
     21 O2         17.5408   -24.3908     9.3961 O.3        1          -0.3196
     22 C18        17.9275   -23.3361     8.5022 C.3        1           0.2050
     23 O3         17.0662   -22.2680     8.9240 O.3        1          -0.2780
     24 C19        16.8304   -22.4609    10.2485 C.ar       1           0.0757
     25 C20        16.3729   -21.6077    11.2600 C.ar       1          -0.1226
     26 C21        16.0516   -20.2040    10.9558 C.2        1           0.5210
     27 O4         14.9179   -19.8962    10.6146 O.co2      1          -0.6708
     28 O5         16.9182   -19.3452    11.0443 O.co2      1          -0.6736
     29 H1         15.6265   -22.7834    16.2415 H          1           0.0495
     30 H2         16.0314   -22.0600    17.8166 H          1           0.0504
     31 H3         14.3510   -22.5228    17.4554 H          1           0.0530
     32 H4         14.2564   -20.7943    15.6800 H          1           0.0794
     33 H5         14.3336   -18.8115    17.1671 H          1           0.0606
     34 H6         13.5961   -20.2034    17.9960 H          1           0.0644
     35 H7         15.2765   -19.7405    18.3572 H          1           0.0523
     36 H8         16.1236   -19.1771    15.4633 H          1           0.0684
     37 H9         17.0667   -20.1063    16.6532 H          1           0.0581
     38 H10        16.9896   -22.0890    15.1660 H          1           0.1022
     39 H11        18.8569   -20.4720    14.9489 H          1           0.0776
     40 H12        18.4517   -21.1953    13.3737 H          1           0.0658
     41 H13        17.5760   -19.1004    12.6934 H          1           0.4028
     42 H14        18.2169   -17.3030    11.8031 H          1           0.1477
     43 H15        17.7714   -15.0108    10.9586 H          1           0.1419
     44 H16        17.0702   -13.2580    12.5364 H          1           0.1603
     45 H17        17.2119   -15.8984    15.7337 H          1           0.1571
     46 H18        14.8178   -21.5845    14.0812 H          1           0.0511
     47 H19        15.5550   -20.1926    13.2523 H          1           0.1129
     48 H20        16.4073   -23.7882    13.8477 H          1           0.1285
     49 H21        17.2032   -25.2880    12.0680 H          1           0.1236
     50 H22        18.9755   -23.0708     8.6419 H          1           0.1229
     51 H23        17.7301   -23.6107     7.4660 H          1           0.0747
@<TRIPOS>BOND
     1    1    2 1
     2    1   29 1
     3    1   30 1
     4    1   31 1
     5    2    3 1
     6    2    4 1
     7    2   32 1
     8    3   33 1
     9    3   34 1
    10    3   35 1
    11    4    5 1
    12    4   36 1
    13    4   37 1
    14    5    6 1
    15    5   16 1
    16    5   38 1
    17    6    7 1
    18    6   39 1
    19    6   40 1
    20    7    8 am
    21    7   41 1
    22    8    9 2
    23    8   10 1
    24   10   15 ar
    25   10   11 ar
    26   11   12 ar
    27   11   42 1
    28   12   13 ar
    29   12   43 1
    30   13   14 ar
    31   13   44 1
    32   14   15 ar
    33   15   45 1
    34   16   17 1
    35   16   46 1
    36   16   47 1
    37   17   25 ar
    38   17   18 ar
    39   18   19 ar
    40   18   48 1
    41   19   20 ar
    42   19   49 1
    43   20   24 ar
    44   20   21 1
    45   21   22 1
    46   22   23 1
    47   22   50 1
    48   22   51 1
    49   23   24 1
    50   24   25 ar
    51   25   26 1
    52   26   27 1
    53   26   28 2
