AVX40911_0, 3
##########                 Name:           AVX40911_0
##########          Protonation:                  100
##########               SMILES:   c1ccc(cc1)/C=C\c2ccc3c(c2C(=O)[O-])OCO3
##########            Long Name:   5-[(Z)-styryl]-1,3-benzodioxole-4-carboxylate
##########          FlexRecCode: 1
##########               Number:                  137
##########   Ligand Source File: /raid1/people/rgc/Examples/sampl4/screening/ligands/build_1//sampl4-hivint-00000
##########           GlobalRank: 41
##########                 Rank:                    1
##########               Setnum:                    1
##########             Matchnum:                 7401
##########                Cloud:                    1
##########        Electrostatic:           -42.296616
##########        Van der Waals:           -16.770935
##########  Ligand Polar Desolv:            21.027863
########## Ligand Apolar Desolv:            -3.011515
##########      Internal Energy:             0.000000
##########      Receptor Energy: 0.0
########## Receptor Desolvation:             0.000000
########## Receptor Hydrophobic:             0.000000
##########         Total Energy: -41.05
##########        Ligand Charge:            -1.000000
##########            Arbitrary:    +999.9990
##########     heavy atom count:   20
##########           pose count:    1
##########        Ligand Energy:             0.000000
# num electro vdwattr vdwrepu polsolv apolsol rdesolv rhydroe totalscore fullpol fullapo
#   1  -33.76   -2.99    2.86   10.73   -0.12    0.00    0.00     -23.29   28.70   -0.33
#   2   20.70   -1.52    0.48   -6.16   -0.06    0.00    0.00      13.44  -18.76   -0.17
#   3  -23.01   -1.45    0.32   12.73   -0.22    0.00    0.00     -11.63   32.31   -0.55
#   4   -3.17   -0.83    0.06    1.99   -0.12    0.00    0.00      -2.06    6.78   -0.40
#   5    1.52   -0.66    0.09   -0.16   -0.07    0.00    0.00       0.73   -0.73   -0.32
#   6   -5.49   -0.79    0.51    1.58    0.06    0.00    0.00      -4.13    9.62    0.34
#   7    1.73   -0.24    0.02   -0.41    0.00    0.00    0.00       1.11   -3.11    0.02
#   8   -2.60   -0.39    0.02    0.93    0.10    0.00    0.00      -1.95    5.02    0.53
#   9    0.05   -0.71    0.06   -0.04   -0.08    0.00    0.00      -0.73   -0.17   -0.33
#  10   -1.04   -1.86    0.84    0.21   -0.16    0.00    0.00      -2.01    0.62   -0.47
#  11   -1.46   -1.82    0.48    0.44   -0.11    0.00    0.00      -2.47    1.23   -0.32
#  12   -0.62   -1.19    0.13   -0.04   -0.09    0.00    0.00      -1.80   -0.11   -0.24
#  13   -0.78   -2.20    0.71    1.48   -0.17    0.00    0.00      -0.95    3.25   -0.37
#  14   -4.97   -2.60    0.81    0.63   -0.22    0.00    0.00      -6.35    1.24   -0.44
#  15   -0.93   -1.92    0.65    0.62   -0.12    0.00    0.00      -1.70    1.40   -0.28
#  16   -2.18   -2.28    1.71    0.30   -0.20    0.00    0.00      -2.66    0.67   -0.45
#  17   -1.72   -1.57    0.36    0.23   -0.19    0.00    0.00      -2.89    0.57   -0.47
#  18   -1.86   -1.28    0.22    0.23   -0.16    0.00    0.00      -2.84    0.67   -0.47
#  19   -2.78   -1.33    0.38    0.56   -0.14    0.00    0.00      -3.32    1.83   -0.47
#  20   -3.34   -1.95    1.14    0.84   -0.11    0.00    0.00      -3.42    2.42   -0.32
#  21    0.63   -0.05    0.00   -0.13   -0.02    0.00    0.00       0.44   -2.40   -0.28
#  22    0.44   -0.07    0.00   -0.10   -0.02    0.00    0.00       0.26   -1.69   -0.28
#  23    0.82   -1.05    2.37   -0.85   -0.11    0.00    0.00       1.19   -2.25   -0.28
#  24    1.27   -0.56    0.22   -0.94   -0.09    0.00    0.00      -0.09   -2.55   -0.24
#  25    4.61   -0.56    0.23   -0.94   -0.09    0.00    0.00       3.25   -2.34   -0.23
#  26    3.36   -0.79    0.34   -1.45   -0.17    0.00    0.00       1.29   -2.40   -0.28
#  27    1.62   -0.77    1.35   -0.42   -0.11    0.00    0.00       1.67   -1.09   -0.28
#  28    1.09   -0.29    0.04   -0.20   -0.09    0.00    0.00       0.55   -0.63   -0.28
#  29    0.88   -0.24    0.06   -0.17   -0.05    0.00    0.00       0.48   -0.93   -0.28
#  30    2.51   -0.18    0.02   -0.25   -0.05    0.00    0.00       2.06   -1.52   -0.28
#  31    6.17   -0.68    1.52   -0.19   -0.05    0.00    0.00       6.76   -0.79   -0.21

@<TRIPOS>MOLECULE
       AVX40911_0       100
   31    33     0     0     0



@<TRIPOS>ATOM
      1 O1         14.2289   -22.7380    10.7245 O.co2      1          -0.6754
      2 C1         14.9708   -23.3954    11.4426 C.2        1           0.5204
      3 O2         14.6776   -24.5474    11.7340 O.co2      1          -0.6701
      4 C2         16.2151   -22.8042    11.9493 C.ar       1          -0.1136
      5 C3         16.2267   -22.1275    13.1754 C.ar       1           0.0727
      6 O3         15.2370   -21.8799    14.0775 O.3        1          -0.2772
      7 C4         15.9101   -21.5223    15.2990 C.3        1           0.2048
      8 O4         17.1628   -20.9726    14.8504 O.3        1          -0.3180
      9 C5         17.4128   -21.5705    13.6481 C.ar       1           0.0042
     10 C6         18.5812   -21.6843    12.9082 C.ar       1          -0.1028
     11 C7         18.5861   -22.3482    11.6983 C.ar       1          -0.1082
     12 C8         17.4124   -22.9185    11.2060 C.ar       1          -0.0265
     13 C9         17.4193   -23.6305     9.9201 C.2        1          -0.0265
     14 C10        17.7768   -22.9847     8.7957 C.2        1          -0.1691
     15 C11        17.9581   -21.5230     8.8118 C.ar       1          -0.0340
     16 C12        19.1959   -20.9650     8.4797 C.ar       1          -0.1232
     17 C13        19.3579   -19.5955     8.4970 C.ar       1          -0.1265
     18 C14        18.2989   -18.7743     8.8426 C.ar       1          -0.1319
     19 C15        17.0704   -19.3194     9.1727 C.ar       1          -0.1197
     20 C16        16.8914   -20.6867     9.1538 C.ar       1          -0.0975
     21 H1         15.3376   -20.7738    15.8468 H          1           0.1238
     22 H2         16.0782   -22.4048    15.9163 H          1           0.0755
     23 H3         19.4958   -21.2488    13.2827 H          1           0.1259
     24 H4         19.5024   -22.4294    11.1326 H          1           0.1319
     25 H5         17.1373   -24.6723     9.8781 H          1           0.1495
     26 H6         17.9310   -23.5380     7.8811 H          1           0.1233
     27 H7         20.0233   -21.6046     8.2105 H          1           0.1190
     28 H8         20.3137   -19.1629     8.2407 H          1           0.1150
     29 H9         18.4320   -17.7026     8.8551 H          1           0.1136
     30 H10        16.2487   -18.6723     9.4416 H          1           0.1158
     31 H11        15.9308   -21.1104     9.4068 H          1           0.1247
@<TRIPOS>BOND
     1    1    2 1
     2    2    3 2
     3    2    4 1
     4    4   12 ar
     5    4    5 ar
     6    5    9 ar
     7    5    6 1
     8    6    7 1
     9    7    8 1
    10    7   21 1
    11    7   22 1
    12    8    9 1
    13    9   10 ar
    14   10   11 ar
    15   10   23 1
    16   11   12 ar
    17   11   24 1
    18   12   13 1
    19   13   14 2
    20   13   25 1
    21   14   15 1
    22   14   26 1
    23   15   20 ar
    24   15   16 ar
    25   16   17 ar
    26   16   27 1
    27   17   18 ar
    28   17   28 1
    29   18   19 ar
    30   18   29 1
    31   19   20 ar
    32   19   30 1
    33   20   31 1
