AVX40812_0, 3
##########                 Name:           AVX40812_0
##########          Protonation:                  100
##########               SMILES:   CC(C)C[C@@H](Cc1ccc2c(c1C(=O)[O-])OCO2)CNC(=O)Cc3c[nH]c4c3cccc4
##########            Long Name:   ol-3-yl)acetyl]amino]methyl]-4-methyl-pentyl]-1,3-benzodioxole-4-carboxylate
##########          FlexRecCode: 1
##########               Number:                   46
##########   Ligand Source File: /raid1/people/rgc/Examples/sampl4/screening/ligands/build_1//sampl4-hivint-00000
##########           GlobalRank: 56
##########                 Rank:                    1
##########               Setnum:                  162
##########             Matchnum:                10860
##########                Cloud:                    1
##########        Electrostatic:           -45.408665
##########        Van der Waals:           -13.994642
##########  Ligand Polar Desolv:            21.368004
########## Ligand Apolar Desolv:            -2.079123
##########      Internal Energy:             0.000000
##########      Receptor Energy: 0.0
########## Receptor Desolvation:             0.000000
########## Receptor Hydrophobic:             0.000000
##########         Total Energy: -40.11
##########        Ligand Charge:            -1.000000
##########            Arbitrary:    +999.9990
##########     heavy atom count:   32
##########           pose count:    1
##########        Ligand Energy:             0.000000
# num electro vdwattr vdwrepu polsolv apolsol rdesolv rhydroe totalscore fullpol fullapo
#   1   -0.05   -0.43    0.03    0.20   -0.04    0.00    0.00      -0.28    0.99   -0.18
#   2    0.12   -0.55    0.10    0.24   -0.03    0.00    0.00      -0.13    1.18   -0.15
#   3   -0.11   -0.52    0.16    0.33   -0.03    0.00    0.00      -0.16    2.06   -0.16
#   4   -0.40   -0.26    0.01    0.19   -0.03    0.00    0.00      -0.49    1.24   -0.17
#   5   -0.71   -0.30    0.01    0.21   -0.01    0.00    0.00      -0.81    1.15   -0.08
#   6    1.77   -0.72    0.72   -0.45   -0.06    0.00    0.00       1.26   -2.85   -0.37
#   7  -11.66   -0.97    0.88    1.68    0.22    0.00    0.00      -9.83   11.44    1.51
#   8    3.59   -0.34    0.06   -0.86   -0.07    0.00    0.00       2.37   -8.02   -0.66
#   9   -1.84   -0.15    0.01    0.94    0.03    0.00    0.00      -1.02   12.71    0.38
#  10   -0.44   -0.20    0.01    0.07   -0.03    0.00    0.00      -0.59    0.56   -0.27
#  11   -0.70   -0.21    0.01    0.24   -0.03    0.00    0.00      -0.69    2.62   -0.33
#  12    0.14   -0.15    0.01   -0.04   -0.07    0.00    0.00      -0.11   -0.65   -0.99
#  13   -1.12   -0.11    0.00    0.29    0.06    0.00    0.00      -0.87    5.30    1.17
#  14    0.26   -0.13    0.00   -0.03   -0.04    0.00    0.00       0.06   -0.57   -0.78
#  15   -0.24   -0.13    0.00    0.06   -0.02    0.00    0.00      -0.33    1.23   -0.48
#  16   -0.30   -0.23    0.00    0.08   -0.04    0.00    0.00      -0.49    0.88   -0.47
#  17   -0.88   -0.32    0.01    0.18   -0.06    0.00    0.00      -1.07    1.41   -0.47
#  18   -0.52   -0.29    0.01    0.15   -0.05    0.00    0.00      -0.70    1.35   -0.47
#  19   -0.50   -0.20    0.01    0.16   -0.04    0.00    0.00      -0.57    1.92   -0.44
#  20   -0.76   -0.61    0.07    0.35   -0.05    0.00    0.00      -0.99    1.27   -0.17
#  21   -0.56   -0.84    0.05    0.17   -0.09    0.00    0.00      -1.26    0.58   -0.31
#  22   -1.57   -1.31    0.22    0.35   -0.13    0.00    0.00      -2.45    1.10   -0.40
#  23   -1.20   -1.62    0.35    0.17   -0.16    0.00    0.00      -2.45    0.52   -0.47
#  24   -0.10   -1.06    0.11    0.03   -0.11    0.00    0.00      -1.12    0.09   -0.33
#  25   -5.88   -0.93    0.11    1.80    0.19    0.00    0.00      -4.72    4.97    0.52
#  26    5.75   -1.10    0.20   -1.36    0.01    0.00    0.00       3.49   -3.07    0.02
#  27  -11.29   -1.63    0.59    3.83    0.14    0.00    0.00      -8.37    9.40    0.34
#  28    2.31   -1.00    0.09   -0.11   -0.10    0.00    0.00       1.19   -0.36   -0.32
#  29   -3.74   -0.96    0.09    1.85   -0.13    0.00    0.00      -2.87    5.96   -0.41
#  30   21.62   -1.81    0.80   -6.22   -0.06    0.00    0.00      14.33  -17.44   -0.16
#  31  -30.20   -3.65    5.40   10.78   -0.12    0.00    0.00     -17.79   25.07   -0.29
#  32  -32.51   -2.85    2.66   11.56   -0.20    0.00    0.00     -21.34   31.70   -0.56
#  33    0.07   -0.21    0.05   -0.09   -0.05    0.00    0.00      -0.23   -0.54   -0.28
#  34    0.04   -0.05    0.00   -0.02   -0.01    0.00    0.00      -0.05   -0.50   -0.28
#  35   -0.01   -0.16    0.01   -0.06   -0.04    0.00    0.00      -0.27   -0.39   -0.28
#  36   -0.53   -0.48    0.27   -0.25   -0.04    0.00    0.00      -1.03   -0.98   -0.17
#  37   -0.20   -0.23    0.11   -0.08   -0.04    0.00    0.00      -0.44   -0.51   -0.28
#  38    0.00   -0.20    0.07   -0.01   -0.03    0.00    0.00      -0.17   -0.07   -0.19
#  39    0.05   -0.04    0.00   -0.04   -0.01    0.00    0.00      -0.04   -1.04   -0.28
#  40    0.33   -0.10    0.00   -0.07   -0.02    0.00    0.00       0.15   -0.74   -0.21
#  41    0.12   -0.03    0.00   -0.03   -0.01    0.00    0.00       0.05   -1.07   -0.28
#  42    0.61   -0.08    0.00   -0.04   -0.01    0.00    0.00       0.48   -0.53   -0.16
#  43    2.02   -0.74    2.30    0.03   -0.06    0.00    0.00       3.55    0.14   -0.28
#  44    0.22   -0.12    0.04   -0.14   -0.03    0.00    0.00      -0.02   -1.38   -0.28
#  45    9.79   -0.02    0.00   -0.78    0.04    0.00    0.00       9.04   -6.00    0.32
#  46    0.35   -0.06    0.00   -0.07   -0.02    0.00    0.00       0.20   -1.19   -0.28
#  47    0.94   -0.09    0.01   -0.11   -0.03    0.00    0.00       0.72   -1.23   -0.28
#  48    0.32   -0.02    0.00   -0.03   -0.01    0.00    0.00       0.27   -1.57   -0.28
#  49    0.67    0.00    0.00   -0.04    0.01    0.00    0.00       0.64   -2.46    0.59
#  50    0.15   -0.02    0.00   -0.02   -0.01    0.00    0.00       0.11   -0.94   -0.28
#  51    0.14   -0.06    0.00   -0.04   -0.02    0.00    0.00       0.02   -0.80   -0.28
#  52    0.68   -0.10    0.01   -0.10   -0.03    0.00    0.00       0.46   -1.03   -0.28
#  53    1.13   -0.10    0.01   -0.12   -0.03    0.00    0.00       0.89   -1.31   -0.28
#  54    0.21   -0.37    0.14   -0.51   -0.07    0.00    0.00      -0.60   -1.95   -0.28
#  55    1.95   -0.19    0.03   -0.10   -0.04    0.00    0.00       1.64   -0.56   -0.21
#  56    1.03   -0.40    0.21   -0.48   -0.07    0.00    0.00       0.28   -1.89   -0.28
#  57    0.76   -0.71    0.53   -0.68   -0.10    0.00    0.00      -0.20   -1.84   -0.28
#  58    3.64   -0.54    0.45   -0.81   -0.10    0.00    0.00       2.64   -2.33   -0.28
#  59    1.83   -0.46    0.12   -0.75   -0.13    0.00    0.00       0.61   -1.60   -0.28

@<TRIPOS>MOLECULE
       AVX40812_0       100
   59    62     0     0     0



@<TRIPOS>ATOM
      1 C1         16.3295   -24.7444    17.4961 C.3        1          -0.1431
      2 C2         15.0312   -25.1819    16.8150 C.3        1          -0.1157
      3 C3         14.1554   -25.9321    17.8204 C.3        1          -0.1599
      4 C4         14.2818   -23.9488    16.3060 C.3        1          -0.1154
      5 C5         15.1577   -23.1988    15.3006 C.3        1          -0.0821
      6 C6         14.4085   -21.9658    14.7916 C.3        1           0.1328
      7 N1         15.3657   -21.0105    14.2286 N.am       1          -0.7247
      8 C7         15.9210   -20.0687    15.0168 C.2        1           0.5054
      9 O1         15.6281   -20.0123    16.1924 O.2        1          -0.5358
     10 C8         16.9056   -19.0859    14.4375 C.3        1          -0.0687
     11 C9         16.1672   -17.8715    13.9363 C.2        1          -0.1475
     12 C10        15.1944   -17.2068    14.5793 C.2        1           0.0632
     13 N2         14.7624   -16.1573    13.8149 N.pl3      1          -0.5951
     14 C11        15.4648   -16.1203    12.6311 C.ar       1           0.0946
     15 C12        15.4292   -15.2812    11.5221 C.ar       1          -0.1322
     16 C13        16.2823   -15.5083    10.4646 C.ar       1          -0.1030
     17 C14        17.1791   -16.5676    10.4932 C.ar       1          -0.1494
     18 C15        17.2310   -17.4040    11.5723 C.ar       1          -0.0663
     19 C16        16.3794   -17.1888    12.6577 C.ar       1          -0.0878
     20 C17        15.4846   -24.1192    14.1228 C.3        1          -0.0622
     21 C18        16.3473   -23.3803    13.1323 C.ar       1          -0.0308
     22 C19        17.5761   -22.8927    13.5181 C.ar       1          -0.1340
     23 C20        18.3756   -22.2128    12.6138 C.ar       1          -0.1030
     24 C21        17.9491   -22.0151    11.3115 C.ar       1          -0.0052
     25 O2         18.5395   -21.3896    10.2511 O.3        1          -0.3198
     26 C22        17.8288   -21.8540     9.0880 C.3        1           0.2050
     27 O3         16.5220   -22.1830     9.5949 O.3        1          -0.2782
     28 C23        16.7091   -22.5019    10.9053 C.ar       1           0.0754
     29 C24        15.9027   -23.1943    11.8185 C.ar       1          -0.1228
     30 C25        14.5927   -23.7184    11.3997 C.2        1           0.5212
     31 O4         14.5044   -24.8494    10.9418 O.co2      1          -0.6699
     32 O5         13.5922   -23.0229    11.5092 O.co2      1          -0.6747
     33 H1         16.9533   -24.2100    16.7798 H          1           0.0489
     34 H2         16.0966   -24.0889    18.3353 H          1           0.0501
     35 H3         16.8635   -25.6229    17.8587 H          1           0.0512
     36 H4         15.2642   -25.8374    15.9759 H          1           0.0839
     37 H5         13.2304   -26.2438    17.3351 H          1           0.0565
     38 H6         14.6892   -26.8105    18.1830 H          1           0.0647
     39 H7         13.9224   -25.2765    18.6595 H          1           0.0503
     40 H8         13.3569   -24.2605    15.8207 H          1           0.0658
     41 H9         14.0488   -23.2932    17.1450 H          1           0.0564
     42 H10        16.0826   -22.8872    15.7858 H          1           0.1010
     43 H11        13.6977   -22.2648    14.0211 H          1           0.0714
     44 H12        13.8730   -21.4990    15.6184 H          1           0.0602
     45 H13        15.5999   -21.0556    13.2883 H          1           0.4020
     46 H14        17.6163   -18.7868    15.2078 H          1           0.0971
     47 H15        17.4410   -19.5525    13.6105 H          1           0.0994
     48 H16        14.8091   -17.4626    15.5553 H          1           0.1696
     49 H17        14.0653   -15.5325    14.0688 H          1           0.4146
     50 H18        14.7349   -14.4545    11.4902 H          1           0.1166
     51 H19        16.2528   -14.8559     9.6044 H          1           0.1217
     52 H20        17.8409   -16.7320     9.6556 H          1           0.1196
     53 H21        17.9313   -18.2261    11.5875 H          1           0.1182
     54 H22        16.0185   -24.9976    14.4853 H          1           0.0499
     55 H23        14.5596   -24.4307    13.6375 H          1           0.1118
     56 H24        17.9183   -23.0408    14.5317 H          1           0.1282
     57 H25        19.3375   -21.8342    12.9268 H          1           0.1234
     58 H26        17.7618   -21.0644     8.3396 H          1           0.1226
     59 H27        18.3119   -22.7378     8.6715 H          1           0.0744
@<TRIPOS>BOND
     1    1    2 1
     2    1   33 1
     3    1   34 1
     4    1   35 1
     5    2    3 1
     6    2    4 1
     7    2   36 1
     8    3   37 1
     9    3   38 1
    10    3   39 1
    11    4    5 1
    12    4   40 1
    13    4   41 1
    14    5    6 1
    15    5   20 1
    16    5   42 1
    17    6    7 1
    18    6   43 1
    19    6   44 1
    20    7    8 am
    21    7   45 1
    22    8    9 2
    23    8   10 1
    24   10   11 1
    25   10   46 1
    26   10   47 1
    27   11   19 1
    28   11   12 2
    29   12   13 1
    30   12   48 1
    31   13   14 1
    32   13   49 1
    33   14   19 ar
    34   14   15 ar
    35   15   16 ar
    36   15   50 1
    37   16   17 ar
    38   16   51 1
    39   17   18 ar
    40   17   52 1
    41   18   19 ar
    42   18   53 1
    43   20   21 1
    44   20   54 1
    45   20   55 1
    46   21   29 ar
    47   21   22 ar
    48   22   23 ar
    49   22   56 1
    50   23   24 ar
    51   23   57 1
    52   24   28 ar
    53   24   25 1
    54   25   26 1
    55   26   27 1
    56   26   58 1
    57   26   59 1
    58   27   28 1
    59   28   29 ar
    60   29   30 1
    61   30   31 1
    62   30   32 2
