GL5243102_0, 3
##########                 Name:          GL5243102_0
##########          Protonation:                   86
##########               SMILES:   CC(C)C[C@H](Cc1ccc2c(c1C(=O)[O-])OCO2)CNC(=O)Cc3c[nH]cn3
##########            Long Name:   ol-4-yl)acetyl]amino]methyl]-4-methyl-pentyl]-1,3-benzodioxole-4-carboxylate
##########          FlexRecCode: 1
##########               Number:                  657
##########   Ligand Source File: /raid1/people/rgc/Examples/sampl4/screening/ligands/build_1//sampl4-hivint-00000
##########           GlobalRank: 102
##########                 Rank:                    1
##########               Setnum:                   48
##########             Matchnum:                21209
##########                Cloud:                    1
##########        Electrostatic:           -32.902092
##########        Van der Waals:           -13.666726
##########  Ligand Polar Desolv:            15.162056
########## Ligand Apolar Desolv:            -1.599440
##########      Internal Energy:             0.000000
##########      Receptor Energy: 0.0
########## Receptor Desolvation:             0.000000
########## Receptor Hydrophobic:             0.000000
##########         Total Energy: -33.01
##########        Ligand Charge:            -1.000000
##########            Arbitrary:    +999.9990
##########     heavy atom count:   28
##########           pose count:    1
##########        Ligand Energy:             0.000000
# num electro vdwattr vdwrepu polsolv apolsol rdesolv rhydroe totalscore fullpol fullapo
#   1   -0.20   -0.14    0.00    0.15   -0.01    0.00    0.00      -0.19    2.03   -0.17
#   2   -0.18   -0.11    0.00    0.07   -0.01    0.00    0.00      -0.23    1.19   -0.14
#   3   -0.20   -0.09    0.00    0.05   -0.01    0.00    0.00      -0.25    0.97   -0.18
#   4   -0.52   -0.30    0.01    0.20   -0.03    0.00    0.00      -0.64    1.16   -0.17
#   5   -1.04   -0.30    0.01    0.28   -0.02    0.00    0.00      -1.07    1.60   -0.12
#   6    0.94   -0.15    0.00   -0.24   -0.03    0.00    0.00       0.52   -2.72   -0.37
#   7   -3.88   -0.45    0.14    1.35    0.18    0.00    0.00      -2.66   11.69    1.53
#   8    1.31   -0.24    0.04   -0.76   -0.06    0.00    0.00       0.29   -8.36   -0.66
#   9   -0.89   -0.07    0.00    0.58    0.02    0.00    0.00      -0.37   13.21    0.37
#  10   -0.16   -0.27    0.10    0.05   -0.03    0.00    0.00      -0.31    0.51   -0.27
#  11    0.06   -0.80    0.50    0.11   -0.09    0.00    0.00      -0.21    0.84   -0.64
#  12   -0.12   -0.72    0.38    0.03   -0.14    0.00    0.00      -0.57    0.24   -1.01
#  13   -1.21   -0.84    0.29    0.56    0.22    0.00    0.00      -0.99    3.15    1.22
#  14    0.38   -0.95    0.32   -0.29   -0.64    0.00    0.00      -1.18   -1.53   -3.33
#  15   -1.14   -0.69    0.23    1.30    0.32    0.00    0.00       0.02    8.18    2.04
#  16   -1.52   -0.77    0.14    0.38   -0.05    0.00    0.00      -1.82    1.39   -0.18
#  17   -1.37   -1.06    0.18    0.33   -0.08    0.00    0.00      -2.00    1.26   -0.32
#  18   -2.11   -1.60    0.51    0.25   -0.13    0.00    0.00      -3.07    0.79   -0.39
#  19   -1.93   -1.59    0.42    0.25   -0.17    0.00    0.00      -3.03    0.68   -0.47
#  20    0.27   -1.18    0.17   -0.13   -0.12    0.00    0.00      -0.99   -0.36   -0.33
#  21   -4.12   -1.40    0.28    2.06    0.22    0.00    0.00      -2.94    4.78    0.52
#  22    2.97   -1.79    0.99   -1.42    0.01    0.00    0.00       0.74   -3.01    0.02
#  23   -5.46   -1.04    0.11    3.59    0.18    0.00    0.00      -2.61    9.71    0.48
#  24    1.04   -0.89    0.08    0.17   -0.10    0.00    0.00       0.30    0.56   -0.33
#  25   -2.49   -0.87    0.13    1.32   -0.10    0.00    0.00      -2.00    5.30   -0.40
#  26   19.22   -1.42    1.28   -4.51   -0.03    0.00    0.00      14.55  -19.33   -0.13
#  27  -18.67   -1.29    1.76    5.61   -0.07    0.00    0.00     -12.67   32.72   -0.42
#  28  -32.12   -2.58    2.97    9.24   -0.13    0.00    0.00     -22.62   28.71   -0.39
#  29    0.07   -0.05    0.00   -0.02   -0.01    0.00    0.00      -0.01   -0.49   -0.28
#  30    0.07   -0.07    0.00   -0.07   -0.02    0.00    0.00      -0.08   -1.04   -0.28
#  31    0.07   -0.02    0.00    0.00    0.00    0.00    0.00       0.04   -0.08   -0.19
#  32    0.12   -0.02    0.00   -0.02    0.00    0.00    0.00       0.08   -0.97   -0.18
#  33    0.08   -0.03    0.00   -0.01   -0.01    0.00    0.00       0.03   -0.42   -0.28
#  34    0.05   -0.01    0.00   -0.01    0.00    0.00    0.00       0.03   -0.49   -0.28
#  35    0.07   -0.04    0.00   -0.02   -0.01    0.00    0.00       0.00   -0.53   -0.28
#  36    0.32   -0.10    0.01   -0.11   -0.03    0.00    0.00       0.09   -1.10   -0.28
#  37    0.36   -0.17    0.02   -0.12   -0.03    0.00    0.00       0.05   -0.82   -0.22
#  38    0.72   -0.09    0.00   -0.06   -0.01    0.00    0.00       0.56   -0.73   -0.17
#  39    0.60   -0.05    0.00   -0.07   -0.01    0.00    0.00       0.47   -1.51   -0.28
#  40    0.23   -0.02    0.00    0.00   -0.01    0.00    0.00       0.20    0.11   -0.28
#  41    5.04   -0.02    0.00   -0.79    0.04    0.00    0.00       4.26   -6.10    0.31
#  42    0.35   -0.17    0.13   -0.15   -0.03    0.00    0.00       0.13   -1.27   -0.28
#  43    0.20   -0.02    0.00   -0.02   -0.01    0.00    0.00       0.15   -1.24   -0.28
#  44    0.38   -0.07    0.01   -0.08   -0.02    0.00    0.00       0.23   -1.01   -0.28
#  45    0.80   -0.01    0.00   -0.10    0.09    0.00    0.00       0.78   -0.66    0.60
#  46    0.37   -0.29    0.19   -0.22   -0.05    0.00    0.00       0.01   -1.22   -0.28
#  47    2.63   -0.35    0.23    0.08   -0.05    0.00    0.00       2.54    0.38   -0.25
#  48    1.75   -0.49    0.17   -0.67   -0.08    0.00    0.00       0.67   -2.31   -0.28
#  49    1.71   -0.41    0.10   -0.57   -0.08    0.00    0.00       0.76   -1.90   -0.28
#  50    1.43   -0.46    0.16   -0.67   -0.10    0.00    0.00       0.36   -1.83   -0.28
#  51    2.24   -0.86    1.20   -1.03   -0.13    0.00    0.00       1.41   -2.23   -0.28
#  52    0.57   -1.08    1.54   -0.72   -0.13    0.00    0.00       0.18   -1.60   -0.28

@<TRIPOS>MOLECULE
      GL5243102_0        86
   52    54     0     0     0



@<TRIPOS>ATOM
      1 C1         14.8283   -14.1443     9.9909 C.3        1          -0.1588
      2 C2         14.0262   -14.9100    11.0451 C.3        1          -0.1177
      3 C3         12.6755   -14.2234    11.2563 C.3        1          -0.1427
      4 C4         13.7993   -16.3463    10.5693 C.3        1          -0.1091
      5 C5         15.1500   -17.0332    10.3580 C.3        1          -0.1059
      6 C6         15.9257   -17.0493    11.6767 C.3        1           0.1295
      7 N1         15.1577   -17.7826    12.6861 N.am       1          -0.7279
      8 C7         14.7717   -17.1641    13.8197 C.2        1           0.5103
      9 O1         15.0603   -16.0007    14.0041 O.2        1          -0.5255
     10 C8         13.9816   -17.9183    14.8579 C.3        1          -0.0590
     11 C9         12.5090   -17.7698    14.5741 C.2        1           0.0224
     12 C10        11.5059   -18.3033    15.2973 C.2        1          -0.0528
     13 N2         10.3373   -17.9227    14.6945 N.pl3      1          -0.5727
     14 C11        10.6672   -17.1695    13.6232 C.2        1           0.1791
     15 N3         11.9675   -17.0782    13.5604 N.2        1          -0.4646
     16 C12        14.9231   -18.4694     9.8822 C.3        1          -0.0648
     17 C13        16.2537   -19.1458     9.6741 C.ar       1          -0.0540
     18 C14        17.1549   -18.6293     8.7699 C.ar       1          -0.1147
     19 C15        18.3809   -19.2444     8.5720 C.ar       1          -0.1167
     20 C16        18.7132   -20.3846     9.2813 C.ar       1           0.0149
     21 O2         19.8251   -21.1728     9.2823 O.3        1          -0.3174
     22 C17        19.4331   -22.4285     9.8572 C.3        1           0.2108
     23 O3         18.3839   -22.0240    10.7495 O.3        1          -0.2993
     24 C18        17.8129   -20.9196    10.2003 C.ar       1           0.0457
     25 C19        16.5762   -20.2958    10.4041 C.ar       1          -0.0856
     26 C20        15.6192   -20.8486    11.3761 C.2        1           0.5354
     27 O4         15.6465   -20.4762    12.5411 O.co2      1          -0.6799
     28 O5         14.7964   -21.6807    11.0191 O.co2      1          -0.6765
     29 H1         15.7906   -14.6335     9.8405 H          1           0.0571
     30 H2         14.2756   -14.1330     9.0513 H          1           0.0497
     31 H3         14.9899   -13.1210    10.3297 H          1           0.0674
     32 H4         14.5788   -14.9215    11.9845 H          1           0.0850
     33 H5         12.1040   -14.7689    12.0074 H          1           0.0513
     34 H6         12.8370   -13.2001    11.5953 H          1           0.0503
     35 H7         12.1228   -14.2120    10.3169 H          1           0.0494
     36 H8         13.2278   -16.8919    11.3203 H          1           0.0584
     37 H9         13.2467   -16.3349     9.6298 H          1           0.0695
     38 H10        15.7214   -16.4875     9.6070 H          1           0.1093
     39 H11        16.8881   -17.5385    11.5262 H          1           0.0668
     40 H12        16.0873   -16.0261    12.0157 H          1           0.0650
     41 H13        14.9270   -18.7131    12.5386 H          1           0.4038
     42 H14        14.2531   -18.9735    14.8255 H          1           0.1039
     43 H15        14.2034   -17.5161    15.8463 H          1           0.1021
     44 H16        11.6045   -18.9141    16.1824 H          1           0.1761
     45 H17         9.4399   -18.1515    14.9830 H          1           0.4180
     46 H18         9.9702   -16.7147    12.9350 H          1           0.2052
     47 H19        14.3517   -19.0150    10.6331 H          1           0.0828
     48 H20        14.3706   -18.4578     8.9427 H          1           0.0703
     49 H21        16.9046   -17.7395     8.2113 H          1           0.1305
     50 H22        19.0802   -18.8318     7.8599 H          1           0.1252
     51 H23        19.0552   -23.1069     9.0923 H          1           0.1240
     52 H24        20.2591   -22.8813    10.4057 H          1           0.0764
@<TRIPOS>BOND
     1    1    2 1
     2    1   29 1
     3    1   30 1
     4    1   31 1
     5    2    3 1
     6    2    4 1
     7    2   32 1
     8    3   33 1
     9    3   34 1
    10    3   35 1
    11    4    5 1
    12    4   36 1
    13    4   37 1
    14    5    6 1
    15    5   16 1
    16    5   38 1
    17    6    7 1
    18    6   39 1
    19    6   40 1
    20    7    8 am
    21    7   41 1
    22    8    9 2
    23    8   10 1
    24   10   11 1
    25   10   42 1
    26   10   43 1
    27   11   15 1
    28   11   12 2
    29   12   13 1
    30   12   44 1
    31   13   14 1
    32   13   45 1
    33   14   15 2
    34   14   46 1
    35   16   17 1
    36   16   47 1
    37   16   48 1
    38   17   25 ar
    39   17   18 ar
    40   18   19 ar
    41   18   49 1
    42   19   20 ar
    43   19   50 1
    44   20   24 ar
    45   20   21 1
    46   21   22 1
    47   22   23 1
    48   22   51 1
    49   22   52 1
    50   23   24 1
    51   24   25 ar
    52   25   26 1
    53   26   27 1
    54   26   28 2
