GL5243100_0, 3
##########                 Name:          GL5243100_0
##########          Protonation:                  100
##########               SMILES:   CC(C)C[C@H](Cc1ccc2c(c1C(=O)[O-])OCO2)CNC(=O)Cc3cc[nH]c3
##########            Long Name:   2-(1H-pyrrol-3-yl)acetyl]amino]methyl]pentyl]-1,3-benzodioxole-4-carboxylate
##########          FlexRecCode: 1
##########               Number:                  520
##########   Ligand Source File: /raid1/people/rgc/Examples/sampl4/screening/ligands/build_1//sampl4-hivint-00000
##########           GlobalRank: 79
##########                 Rank:                    1
##########               Setnum:                   42
##########             Matchnum:                19367
##########                Cloud:                    1
##########        Electrostatic:           -36.680634
##########        Van der Waals:           -15.134006
##########  Ligand Polar Desolv:            16.682005
########## Ligand Apolar Desolv:            -2.003764
##########      Internal Energy:             0.000000
##########      Receptor Energy: 0.0
########## Receptor Desolvation:             0.000000
########## Receptor Hydrophobic:             0.000000
##########         Total Energy: -37.14
##########        Ligand Charge:            -1.000000
##########            Arbitrary:    +999.9990
##########     heavy atom count:   28
##########           pose count:    1
##########        Ligand Energy:             0.000000
# num electro vdwattr vdwrepu polsolv apolsol rdesolv rhydroe totalscore fullpol fullapo
#   1   -0.21   -0.18    0.00    0.09   -0.02    0.00    0.00      -0.31    0.84   -0.18
#   2   -0.20   -0.24    0.01    0.19   -0.02    0.00    0.00      -0.27    1.37   -0.18
#   3   -0.26   -0.29    0.02    0.39   -0.03    0.00    0.00      -0.17    2.46   -0.18
#   4   -1.02   -0.73    0.13    0.25   -0.05    0.00    0.00      -1.43    0.90   -0.18
#   5   -1.79   -0.48    0.05    0.47   -0.03    0.00    0.00      -1.79    2.07   -0.12
#   6    1.15   -0.38    0.13   -0.40   -0.05    0.00    0.00       0.44   -2.86   -0.38
#   7   -8.78   -0.37    0.04    1.50    0.27    0.00    0.00      -7.34   11.78    2.14
#   8    3.62   -0.28    0.01   -0.99   -0.08    0.00    0.00       2.29   -8.62   -0.66
#   9   -2.11   -0.14    0.00    0.96    0.03    0.00    0.00      -1.26   13.90    0.38
#  10   -0.43   -0.77    0.57    0.11   -0.05    0.00    0.00      -0.57    0.59   -0.27
#  11   -0.84   -1.43    1.13    0.57   -0.07    0.00    0.00      -0.63    2.83   -0.33
#  12   -0.01   -1.24    1.05    0.00   -0.18    0.00    0.00      -0.37    0.01   -1.01
#  13   -1.46   -0.73    0.14    0.80    0.23    0.00    0.00      -1.02    4.20    1.19
#  14   -0.11   -0.84    0.13    0.02   -0.22    0.00    0.00      -1.03    0.08   -1.01
#  15   -1.49   -1.04    0.37    0.89   -0.12    0.00    0.00      -1.39    3.84   -0.51
#  16   -2.04   -1.42    0.98    0.45   -0.06    0.00    0.00      -2.09    1.38   -0.18
#  17   -1.46   -1.42    0.47    0.30   -0.07    0.00    0.00      -2.18    1.02   -0.23
#  18   -2.36   -1.79    0.73    0.23   -0.12    0.00    0.00      -3.31    0.69   -0.36
#  19   -1.92   -1.62    0.46    0.26   -0.17    0.00    0.00      -2.99    0.72   -0.47
#  20    0.25   -1.18    0.18   -0.11   -0.12    0.00    0.00      -0.98   -0.31   -0.33
#  21   -3.88   -1.35    0.33    2.02    0.22    0.00    0.00      -2.66    4.87    0.52
#  22    2.63   -1.66    0.71   -1.45    0.01    0.00    0.00       0.24   -3.12    0.02
#  23   -5.20   -1.14    0.15    3.79    0.18    0.00    0.00      -2.21    9.84    0.48
#  24    1.10   -0.93    0.08    0.21   -0.11    0.00    0.00       0.35    0.63   -0.33
#  25   -2.77   -1.04    0.24    1.31   -0.11    0.00    0.00      -2.38    4.80   -0.40
#  26   20.61   -1.40    0.75   -5.20   -0.03    0.00    0.00      14.73  -19.27   -0.12
#  27  -22.32   -1.43    1.91    6.32   -0.08    0.00    0.00     -15.59   32.90   -0.42
#  28  -31.74   -2.35    2.12    9.86   -0.12    0.00    0.00     -22.23   28.43   -0.36
#  29    0.08   -0.04    0.00   -0.01   -0.01    0.00    0.00       0.01   -0.36   -0.28
#  30    0.07   -0.10    0.01   -0.06   -0.03    0.00    0.00      -0.11   -0.56   -0.28
#  31    0.06   -0.02    0.00   -0.01   -0.01    0.00    0.00       0.01   -0.50   -0.28
#  32    0.17   -0.04    0.00   -0.02    0.00    0.00    0.00       0.11   -0.74   -0.11
#  33    0.15   -0.11    0.01    0.04   -0.02    0.00    0.00       0.07    0.36   -0.19
#  34    0.06   -0.03    0.00   -0.02   -0.01    0.00    0.00       0.00   -0.57   -0.28
#  35    0.07   -0.16    0.02   -0.16   -0.04    0.00    0.00      -0.26   -1.19   -0.28
#  36    0.79   -0.29    0.06   -0.26   -0.06    0.00    0.00       0.23   -0.93   -0.22
#  37    0.56   -0.52    0.28   -0.28   -0.07    0.00    0.00      -0.03   -1.06   -0.26
#  38    1.23   -0.10    0.00   -0.07   -0.01    0.00    0.00       1.06   -0.91   -0.11
#  39    0.19   -0.04    0.00   -0.07   -0.01    0.00    0.00       0.07   -1.64   -0.28
#  40    0.40   -0.49    1.29    0.12   -0.04    0.00    0.00       1.28    0.74   -0.28
#  41    7.00   -0.01    0.00   -0.51    0.04    0.00    0.00       6.53   -5.80    0.49
#  42    0.90   -0.36    0.51   -0.23   -0.05    0.00    0.00       0.77   -1.27   -0.28
#  43    0.22   -0.26    0.15   -0.22   -0.05    0.00    0.00      -0.15   -1.27   -0.28
#  44    0.14   -0.19    0.10   -0.18   -0.04    0.00    0.00      -0.17   -1.35   -0.28
#  45    0.56   -0.01    0.00   -0.13    0.05    0.00    0.00       0.47   -1.65    0.59
#  46    0.76   -0.19    0.05   -0.23   -0.04    0.00    0.00       0.35   -1.43   -0.28
#  47    1.59   -0.15    0.02   -0.24   -0.04    0.00    0.00       1.18   -1.72   -0.28
#  48    3.65   -0.71    1.02    0.04   -0.07    0.00    0.00       3.93    0.16   -0.26
#  49    2.16   -1.03    1.45   -0.77   -0.09    0.00    0.00       1.72   -2.19   -0.26
#  50    1.98   -0.42    0.12   -0.51   -0.08    0.00    0.00       1.08   -1.67   -0.28
#  51    1.26   -0.50    0.27   -0.61   -0.10    0.00    0.00       0.32   -1.73   -0.28
#  52    1.85   -0.93    1.53   -1.01   -0.12    0.00    0.00       1.31   -2.27   -0.28
#  53    0.46   -0.77    0.42   -0.74   -0.13    0.00    0.00      -0.77   -1.61   -0.28

@<TRIPOS>MOLECULE
      GL5243100_0       100
   53    55     0     0     0



@<TRIPOS>ATOM
      1 C1         14.2171   -14.7355     9.9657 C.3        1          -0.1408
      2 C2         13.1301   -15.5995    10.6084 C.3        1          -0.1167
      3 C3         11.7574   -14.9856    10.3260 C.3        1          -0.1550
      4 C4         13.1878   -17.0114    10.0220 C.3        1          -0.1018
      5 C5         14.5606   -17.6252    10.3045 C.3        1          -0.1203
      6 C6         14.7885   -17.6909    11.8159 C.3        1           0.1310
      7 N1         16.1030   -18.2786    12.0865 N.am       1          -0.7248
      8 C7         17.1884   -17.4858    12.1847 C.2        1           0.5098
      9 O1         17.0770   -16.2857    12.0490 O.2        1          -0.5372
     10 C8         18.5406   -18.0903    12.4629 C.3        1          -0.0679
     11 C9         18.5027   -18.8205    13.7807 C.2        1          -0.1447
     12 C10        18.7839   -18.2973    14.9913 C.2        1          -0.0045
     13 N2         18.6342   -19.2794    15.9253 N.pl3      1          -0.5621
     14 C11        18.2561   -20.4281    15.2958 C.2        1          -0.0220
     15 C12        18.1612   -20.1735    13.9749 C.2        1          -0.1819
     16 C13        14.6183   -19.0372     9.7182 C.3        1          -0.0659
     17 C14        16.0570   -19.4525     9.5490 C.ar       1          -0.0491
     18 C15        16.8956   -18.7173     8.7410 C.ar       1          -0.1159
     19 C16        18.2201   -19.0916     8.5795 C.ar       1          -0.1164
     20 C17        18.7149   -20.2083     9.2289 C.ar       1           0.0141
     21 O2         19.9484   -20.7880     9.2464 O.3        1          -0.3173
     22 C18        19.7587   -22.1340     9.7082 C.3        1           0.2110
     23 O3         18.6107   -21.9901    10.5579 O.3        1          -0.2991
     24 C19        17.8798   -20.9628    10.0504 C.ar       1           0.0481
     25 C20        16.5428   -20.5823    10.2177 C.ar       1          -0.0871
     26 C21        15.6524   -21.3681    11.0872 C.2        1           0.5366
     27 O4         15.5543   -21.0890    12.2743 O.co2      1          -0.6783
     28 O5         15.0106   -22.3003    10.6228 O.co2      1          -0.6729
     29 H1         15.1951   -15.1729    10.1669 H          1           0.0474
     30 H2         14.0547   -14.6888     8.8888 H          1           0.0479
     31 H3         14.1760   -13.7297    10.3835 H          1           0.0464
     32 H4         13.2926   -15.6463    11.6852 H          1           0.0929
     33 H5         10.9830   -15.6010    10.7838 H          1           0.0840
     34 H6         11.7164   -13.9796    10.7437 H          1           0.0419
     35 H7         11.5949   -14.9387     9.2492 H          1           0.0421
     36 H8         12.4135   -17.6269    10.4800 H          1           0.0559
     37 H9         13.0253   -16.9646     8.9453 H          1           0.0570
     38 H10        15.3349   -17.0097     9.8466 H          1           0.1240
     39 H11        14.7474   -16.6850    12.2338 H          1           0.0577
     40 H12        14.0142   -18.3064    12.2738 H          1           0.0703
     41 H13        16.1920   -19.2384    12.1952 H          1           0.3990
     42 H14        18.7965   -18.7899    11.6671 H          1           0.0983
     43 H15        19.2898   -17.3000    12.5067 H          1           0.0924
     44 H16        19.0774   -17.2767    15.1873 H          1           0.1588
     45 H17        18.7743   -19.1777    16.8797 H          1           0.4117
     46 H18        18.0614   -21.3771    15.7732 H          1           0.1606
     47 H19        17.8779   -20.8778    13.2068 H          1           0.1335
     48 H20        14.1167   -19.7313    10.3924 H          1           0.0846
     49 H21        14.1204   -19.0487     8.7485 H          1           0.0690
     50 H22        16.5186   -17.8438     8.2297 H          1           0.1302
     51 H23        18.8694   -18.5087     7.9430 H          1           0.1252
     52 H24        19.5469   -22.8058     8.8764 H          1           0.1238
     53 H25        20.6237   -22.4773    10.2758 H          1           0.0767
@<TRIPOS>BOND
     1    1    2 1
     2    1   29 1
     3    1   30 1
     4    1   31 1
     5    2    3 1
     6    2    4 1
     7    2   32 1
     8    3   33 1
     9    3   34 1
    10    3   35 1
    11    4    5 1
    12    4   36 1
    13    4   37 1
    14    5    6 1
    15    5   16 1
    16    5   38 1
    17    6    7 1
    18    6   39 1
    19    6   40 1
    20    7    8 am
    21    7   41 1
    22    8    9 2
    23    8   10 1
    24   10   11 1
    25   10   42 1
    26   10   43 1
    27   11   15 1
    28   11   12 2
    29   12   13 1
    30   12   44 1
    31   13   14 1
    32   13   45 1
    33   14   15 2
    34   14   46 1
    35   15   47 1
    36   16   17 1
    37   16   48 1
    38   16   49 1
    39   17   25 ar
    40   17   18 ar
    41   18   19 ar
    42   18   50 1
    43   19   20 ar
    44   19   51 1
    45   20   24 ar
    46   20   21 1
    47   21   22 1
    48   22   23 1
    49   22   52 1
    50   22   53 1
    51   23   24 1
    52   24   25 ar
    53   25   26 1
    54   26   27 1
    55   26   28 2
