GL5243104_0, 3
##########                 Name:          GL5243104_0
##########          Protonation:                  100
##########               SMILES:   CC(C)C[C@@H](Cc1ccc2c(c1C(=O)[O-])OCO2)CNC(=O)c3ccncc3
##########            Long Name:   l-2-[(pyridine-4-carbonylamino)methyl]pentyl]-1,3-benzodioxole-4-carboxylate
##########          FlexRecCode: 1
##########               Number:                   44
##########   Ligand Source File: /raid1/people/rgc/Examples/sampl4/screening/ligands/build_1//sampl4-hivint-00000
##########           GlobalRank: 88
##########                 Rank:                    1
##########               Setnum:                    1
##########             Matchnum:                17061
##########                Cloud:                    1
##########        Electrostatic:           -31.515894
##########        Van der Waals:           -16.085924
##########  Ligand Polar Desolv:            13.307191
########## Ligand Apolar Desolv:            -1.213928
##########      Internal Energy:             0.000000
##########      Receptor Energy: 0.0
########## Receptor Desolvation:             0.000000
########## Receptor Hydrophobic:             0.000000
##########         Total Energy: -35.51
##########        Ligand Charge:            -1.000000
##########            Arbitrary:    +999.9990
##########     heavy atom count:   28
##########           pose count:    1
##########        Ligand Energy:             0.000000
# num electro vdwattr vdwrepu polsolv apolsol rdesolv rhydroe totalscore fullpol fullapo
#   1   -0.37   -0.13    0.00    0.18   -0.01    0.00    0.00      -0.33    2.35   -0.16
#   2   -0.29   -0.13    0.01    0.11   -0.01    0.00    0.00      -0.31    1.35   -0.15
#   3   -0.23   -0.05    0.00    0.05   -0.01    0.00    0.00      -0.23    1.42   -0.18
#   4   -0.46   -0.15    0.00    0.09   -0.02    0.00    0.00      -0.52    0.98   -0.17
#   5   -0.77   -0.29    0.02    0.16   -0.02    0.00    0.00      -0.90    0.93   -0.09
#   6    0.94   -0.63    0.14   -0.44   -0.09    0.00    0.00      -0.08   -1.83   -0.37
#   7   -5.58   -0.73    0.18    1.50    0.39    0.00    0.00      -4.23    8.25    2.17
#   8    1.97   -0.55    0.12   -1.04   -0.10    0.00    0.00       0.41   -7.11   -0.66
#   9   -0.85   -0.47    0.08    1.38    0.06    0.00    0.00       0.19    9.77    0.40
#  10   -0.18   -0.27    0.03    0.13   -0.04    0.00    0.00      -0.34    1.26   -0.41
#  11   -0.54   -0.16    0.00    0.07   -0.03    0.00    0.00      -0.66    1.02   -0.46
#  12    0.19   -0.10    0.00   -0.02   -0.04    0.00    0.00       0.02   -0.64   -0.98
#  13   -0.39   -0.08    0.00    0.12    0.06    0.00    0.00      -0.28    4.25    2.05
#  14    0.07   -0.12    0.00   -0.04   -0.05    0.00    0.00      -0.13   -0.73   -0.98
#  15   -0.10   -0.26    0.02    0.12   -0.04    0.00    0.00      -0.26    1.21   -0.45
#  16   -1.49   -0.57    0.40    0.21   -0.03    0.00    0.00      -1.47    1.30   -0.17
#  17   -0.94   -0.71    0.11    0.14   -0.07    0.00    0.00      -1.47    0.62   -0.30
#  18   -2.54   -0.92    0.06    0.46   -0.12    0.00    0.00      -3.06    1.48   -0.38
#  19   -2.08   -1.72    0.36    0.37   -0.19    0.00    0.00      -3.26    0.93   -0.47
#  20   -0.13   -1.84    0.45    0.12   -0.14    0.00    0.00      -1.54    0.28   -0.33
#  21   -9.38   -3.03    1.89    3.04    0.28    0.00    0.00      -7.21    5.57    0.52
#  22    5.72   -2.22    1.08   -1.78    0.01    0.00    0.00       2.82   -3.29    0.02
#  23  -10.28   -1.91    0.48    4.33    0.15    0.00    0.00      -7.23    9.50    0.34
#  24    2.48   -1.28    0.19   -0.11   -0.12    0.00    0.00       1.17   -0.28   -0.32
#  25   -3.81   -0.83    0.10    1.47   -0.10    0.00    0.00      -3.17    5.76   -0.41
#  26   15.72   -0.89    0.21   -3.72   -0.03    0.00    0.00      11.28  -16.51   -0.15
#  27  -25.75   -1.88    1.45    6.01   -0.06    0.00    0.00     -20.23   20.88   -0.21
#  28  -12.85   -0.44    0.02    5.70   -0.10    0.00    0.00      -7.67   30.93   -0.56
#  29    0.12   -0.06    0.00   -0.06   -0.01    0.00    0.00      -0.01   -1.27   -0.28
#  30    0.04   -0.03    0.00   -0.01   -0.01    0.00    0.00       0.00   -0.16   -0.28
#  31    0.15   -0.02    0.00    0.00    0.00    0.00    0.00       0.12   -0.08   -0.16
#  32    0.32   -0.10    0.03   -0.04   -0.02    0.00    0.00       0.19   -0.43   -0.20
#  33    0.07   -0.01    0.00   -0.01    0.00    0.00    0.00       0.04   -0.77   -0.28
#  34    0.07   -0.01    0.00   -0.01    0.00    0.00    0.00       0.05   -0.76   -0.28
#  35    0.06   -0.01    0.00   -0.01    0.00    0.00    0.00       0.04   -0.44   -0.28
#  36    0.22   -0.03    0.00   -0.03   -0.01    0.00    0.00       0.14   -1.01   -0.28
#  37    0.13   -0.04    0.00   -0.03   -0.01    0.00    0.00       0.05   -0.96   -0.24
#  38    0.73   -0.11    0.01   -0.03   -0.02    0.00    0.00       0.58   -0.33   -0.19
#  39    0.40   -0.27    0.06   -0.11   -0.05    0.00    0.00       0.02   -0.46   -0.22
#  40    0.64   -0.27    0.08   -0.28   -0.07    0.00    0.00       0.10   -1.16   -0.28
#  41    4.26   -0.01    0.00   -0.43    0.04    0.00    0.00       3.86   -4.12    0.39
#  42    1.00   -0.04    0.00   -0.03   -0.01    0.00    0.00       0.93   -0.96   -0.22
#  43    0.29   -0.02    0.00   -0.02   -0.01    0.00    0.00       0.24   -0.83   -0.28
#  44    0.11   -0.02    0.00   -0.02   -0.01    0.00    0.00       0.06   -0.90   -0.28
#  45    0.11   -0.08    0.01   -0.12   -0.02    0.00    0.00      -0.10   -1.34   -0.27
#  46    2.95   -0.33    0.51   -0.22   -0.02    0.00    0.00       2.90   -1.50   -0.14
#  47    1.02   -0.24    0.31   -0.21   -0.04    0.00    0.00       0.83   -1.67   -0.28
#  48    1.57   -0.17    0.01   -0.40   -0.05    0.00    0.00       0.96   -2.20   -0.28
#  49    1.73   -0.61    0.26   -0.89   -0.11    0.00    0.00       0.38   -2.23   -0.28
#  50    2.35   -0.88    1.24   -1.26   -0.14    0.00    0.00       1.31   -2.50   -0.28
#  51    2.08   -1.07    0.77   -1.07   -0.18    0.00    0.00       0.52   -1.67   -0.28

@<TRIPOS>MOLECULE
      GL5243104_0       100
   51    53     0     0     0



@<TRIPOS>ATOM
      1 C1         15.2899   -22.1293    17.0409 C.3        1          -0.1374
      2 C2         15.0322   -20.7331    16.4706 C.3        1          -0.0898
      3 C3         14.5431   -19.8085    17.5872 C.3        1          -0.1459
      4 C4         16.3287   -20.1767    15.8788 C.3        1          -0.1001
      5 C5         16.8177   -21.1014    14.7622 C.3        1          -0.0833
      6 C6         18.1143   -20.5448    14.1704 C.3        1           0.1157
      7 N1         17.8676   -19.2079    13.6245 N.am       1          -0.7121
      8 C7         18.0231   -18.1214    14.4063 C.2        1           0.5519
      9 O1         18.3682   -18.2505    15.5643 O.2        1          -0.5325
     10 C8         17.7738   -16.7694    13.8541 C.ar       1          -0.0829
     11 C9         16.8845   -16.5800    12.7919 C.ar       1          -0.1418
     12 C10        16.6813   -15.3020    12.3083 C.ar       1           0.0965
     13 N2         17.3124   -14.2711    12.8340 N.ar       1          -0.4728
     14 C11        18.1586   -14.4055    13.8358 C.ar       1           0.0940
     15 C12        18.4166   -15.6469    14.3845 C.ar       1          -0.1174
     16 C13        15.7526   -21.1863    13.6671 C.3        1          -0.0745
     17 C14        16.2343   -22.0969    12.5673 C.ar       1          -0.0379
     18 C15        16.5271   -23.4142    12.8425 C.ar       1          -0.1353
     19 C16        16.9707   -24.2590    11.8376 C.ar       1          -0.1019
     20 C17        17.1237   -23.7883    10.5459 C.ar       1          -0.0046
     21 O2         17.5337   -24.3890     9.3931 O.3        1          -0.3195
     22 C18        17.9222   -23.3339     8.5004 C.3        1           0.2051
     23 O3         17.0652   -22.2638     8.9258 O.3        1          -0.2782
     24 C19        16.8312   -22.4584    10.2504 C.ar       1           0.0743
     25 C20        16.3785   -21.6056    11.2644 C.ar       1          -0.1234
     26 C21        16.0612   -20.2003    10.9635 C.2        1           0.5214
     27 O4         14.9278   -19.8882    10.6249 O.co2      1          -0.6606
     28 O5         16.9308   -19.3444    11.0518 O.co2      1          -0.6739
     29 H1         15.6384   -22.7881    16.2453 H          1           0.0253
     30 H2         16.0488   -22.0688    17.8209 H          1           0.0427
     31 H3         14.3663   -22.5258    17.4625 H          1           0.0856
     32 H4         14.2734   -20.7937    15.6904 H          1           0.0904
     33 H5         14.3596   -18.8138    17.1809 H          1           0.0435
     34 H6         13.6195   -20.2050    18.0087 H          1           0.0453
     35 H7         15.3021   -19.7479    18.3673 H          1           0.0490
     36 H8         16.1451   -19.1820    15.4726 H          1           0.0551
     37 H9         17.0876   -20.1161    16.6588 H          1           0.0489
     38 H10        17.0013   -22.0961    15.1685 H          1           0.0941
     39 H11        18.8732   -20.4842    14.9506 H          1           0.0740
     40 H12        18.4627   -21.2035    13.3750 H          1           0.0660
     41 H13        17.5921   -19.1049    12.6999 H          1           0.4005
     42 H14        16.3646   -17.4202    12.3559 H          1           0.1406
     43 H15        15.9965   -15.1456    11.4880 H          1           0.1626
     44 H16        18.6539   -13.5330    14.2354 H          1           0.1624
     45 H17        19.1076   -15.7490    15.2083 H          1           0.1477
     46 H18        14.8289   -21.5828    14.0887 H          1           0.1350
     47 H19        15.5690   -20.1915    13.2610 H          1           0.0495
     48 H20        16.4108   -23.7910    13.8480 H          1           0.1281
     49 H21        17.1984   -25.2901    12.0641 H          1           0.1238
     50 H22        18.9712   -23.0723     8.6386 H          1           0.1228
     51 H23        17.7219   -23.6059     7.4641 H          1           0.0739
@<TRIPOS>BOND
     1    1    2 1
     2    1   29 1
     3    1   30 1
     4    1   31 1
     5    2    3 1
     6    2    4 1
     7    2   32 1
     8    3   33 1
     9    3   34 1
    10    3   35 1
    11    4    5 1
    12    4   36 1
    13    4   37 1
    14    5    6 1
    15    5   16 1
    16    5   38 1
    17    6    7 1
    18    6   39 1
    19    6   40 1
    20    7    8 am
    21    7   41 1
    22    8    9 2
    23    8   10 1
    24   10   15 ar
    25   10   11 ar
    26   11   12 ar
    27   11   42 1
    28   12   13 ar
    29   12   43 1
    30   13   14 ar
    31   14   15 ar
    32   14   44 1
    33   15   45 1
    34   16   17 1
    35   16   46 1
    36   16   47 1
    37   17   25 ar
    38   17   18 ar
    39   18   19 ar
    40   18   48 1
    41   19   20 ar
    42   19   49 1
    43   20   24 ar
    44   20   21 1
    45   21   22 1
    46   22   23 1
    47   22   50 1
    48   22   51 1
    49   23   24 1
    50   24   25 ar
    51   25   26 1
    52   26   27 1
    53   26   28 2
