GL5243106_0, 3
##########                 Name:          GL5243106_0
##########          Protonation:                  100
##########               SMILES:   CC(C)C[C@@H](Cc1ccc2c(c1C(=O)[O-])OCO2)CNC(=O)c3ccc(cc3)N
##########            Long Name:   4-aminobenzoyl)amino]methyl]-4-methyl-pentyl]-1,3-benzodioxole-4-carboxylate
##########          FlexRecCode: 1
##########               Number:                   34
##########   Ligand Source File: /raid1/people/rgc/Examples/sampl4/screening/ligands/build_1//sampl4-hivint-00000
##########           GlobalRank: 85
##########                 Rank:                    1
##########               Setnum:                   15
##########             Matchnum:                16164
##########                Cloud:                    1
##########        Electrostatic:           -45.091938
##########        Van der Waals:           -12.271293
##########  Ligand Polar Desolv:            23.681540
########## Ligand Apolar Desolv:            -2.066039
##########      Internal Energy:             0.000000
##########      Receptor Energy: 0.0
########## Receptor Desolvation:             0.000000
########## Receptor Hydrophobic:             0.000000
##########         Total Energy: -35.75
##########        Ligand Charge:            -1.000000
##########            Arbitrary:    +999.9990
##########     heavy atom count:   29
##########           pose count:    1
##########        Ligand Energy:             0.000000
# num electro vdwattr vdwrepu polsolv apolsol rdesolv rhydroe totalscore fullpol fullapo
#   1   -0.03   -0.98    0.35    0.30   -0.05    0.00    0.00      -0.41    1.06   -0.18
#   2    0.21   -0.71    0.12    0.33   -0.04    0.00    0.00      -0.08    1.34   -0.15
#   3   -0.10   -0.53    0.13    0.40   -0.03    0.00    0.00      -0.13    2.22   -0.17
#   4   -0.38   -0.33    0.02    0.24   -0.03    0.00    0.00      -0.48    1.32   -0.17
#   5   -0.69   -0.41    0.02    0.28   -0.02    0.00    0.00      -0.82    1.24   -0.08
#   6    1.97   -0.42    0.13   -0.47   -0.06    0.00    0.00       1.15   -2.97   -0.37
#   7   -4.61   -0.36    0.06    1.50    0.17    0.00    0.00      -3.24   13.36    1.50
#   8    2.64   -0.23    0.01   -0.95   -0.06    0.00    0.00       1.42  -10.56   -0.65
#   9   -3.55   -0.30    0.01    2.15    0.06    0.00    0.00      -1.63   14.25    0.41
#  10   -0.33   -0.11    0.00    0.16   -0.02    0.00    0.00      -0.30    3.86   -0.41
#  11   -0.05   -0.07    0.00    0.02   -0.02    0.00    0.00      -0.12    0.52   -0.44
#  12   -0.23   -0.03    0.00    0.02   -0.01    0.00    0.00      -0.24    1.74   -0.46
#  13    0.20   -0.03    0.00   -0.02   -0.01    0.00    0.00       0.14   -1.78   -0.73
#  14   -0.58   -0.01    0.00    0.01    0.01    0.00    0.00      -0.57    1.68    0.90
#  15   -0.17   -0.06    0.00    0.04   -0.01    0.00    0.00      -0.21    1.75   -0.46
#  16   -0.01   -0.11    0.00    0.02   -0.02    0.00    0.00      -0.12    0.39   -0.46
#  17   -0.62   -0.91    0.19    0.40   -0.05    0.00    0.00      -0.99    1.28   -0.17
#  18   -0.49   -1.34    0.19    0.21   -0.11    0.00    0.00      -1.55    0.59   -0.31
#  19   -1.30   -2.94    1.64    0.42   -0.15    0.00    0.00      -2.35    1.08   -0.40
#  20   -0.95   -3.38    2.08    0.20   -0.19    0.00    0.00      -2.24    0.50   -0.47
#  21   -0.09   -1.89    0.60    0.03   -0.14    0.00    0.00      -1.49    0.08   -0.33
#  22   -5.63   -1.53    0.32    2.30    0.24    0.00    0.00      -4.30    4.96    0.52
#  23    5.86   -1.34    0.37   -1.42    0.01    0.00    0.00       3.48   -3.10    0.02
#  24  -10.68   -1.98    0.59    4.32    0.15    0.00    0.00      -7.59    9.50    0.34
#  25    2.18   -1.39    0.20   -0.14   -0.13    0.00    0.00       0.71   -0.35   -0.32
#  26   -3.41   -1.17    0.13    2.13   -0.15    0.00    0.00      -2.46    6.01   -0.41
#  27   20.47   -2.02    1.29   -6.71   -0.06    0.00    0.00      12.96  -17.69   -0.16
#  28  -28.42   -4.30    7.91   12.12   -0.14    0.00    0.00     -12.82   25.77   -0.29
#  29  -30.37   -1.80    0.59   11.42   -0.20    0.00    0.00     -20.36   32.14   -0.56
#  30    0.12   -0.78    1.36   -0.16   -0.08    0.00    0.00       0.46   -0.57   -0.28
#  31    0.03   -0.13    0.02   -0.06   -0.03    0.00    0.00      -0.18   -0.56   -0.28
#  32   -0.02   -0.32    0.06   -0.13   -0.08    0.00    0.00      -0.50   -0.48   -0.28
#  33   -0.57   -0.59    0.38   -0.30   -0.05    0.00    0.00      -1.14   -0.99   -0.17
#  34   -0.11   -0.25    0.14   -0.10   -0.04    0.00    0.00      -0.36   -0.66   -0.28
#  35   -0.11   -0.18    0.03    0.00   -0.03    0.00    0.00      -0.29   -0.01   -0.19
#  36    0.05   -0.05    0.00   -0.04   -0.01    0.00    0.00      -0.06   -1.11   -0.28
#  37    0.29   -0.10    0.01   -0.08   -0.02    0.00    0.00       0.10   -0.85   -0.21
#  38    0.14   -0.04    0.00   -0.04   -0.01    0.00    0.00       0.05   -1.16   -0.28
#  39    0.63   -0.18    0.03   -0.08   -0.02    0.00    0.00       0.38   -0.50   -0.16
#  40    1.44   -0.12    0.03    0.00   -0.03    0.00    0.00       1.33    0.03   -0.28
#  41    1.44   -0.28    0.27   -0.24   -0.04    0.00    0.00       1.14   -1.63   -0.28
#  42    1.30    0.00    0.00   -0.43    0.01    0.00    0.00       0.88   -7.12    0.19
#  43    0.25   -0.02    0.00   -0.05   -0.01    0.00    0.00       0.17   -1.47   -0.22
#  44    0.13    0.00    0.00   -0.01    0.00    0.00    0.00       0.12   -0.94   -0.28
#  45    0.26    0.00    0.00    0.00    0.00    0.00    0.00       0.26   -0.13    0.59
#  46    0.23    0.00    0.00    0.00    0.00    0.00    0.00       0.23   -0.07    0.59
#  47    0.08   -0.02    0.00   -0.01    0.00    0.00    0.00       0.05   -0.95   -0.28
#  48    0.14   -0.04    0.00   -0.06   -0.01    0.00    0.00       0.03   -1.64   -0.26
#  49    0.10   -0.66    0.54   -0.70   -0.10    0.00    0.00      -0.82   -2.05   -0.28
#  50    1.61   -0.26    0.07   -0.11   -0.04    0.00    0.00       1.26   -0.59   -0.21
#  51    0.91   -1.05    1.19   -0.75   -0.11    0.00    0.00       0.20   -1.91   -0.28
#  52    0.06   -1.65    4.40   -0.87   -0.13    0.00    0.00       1.81   -1.84   -0.28
#  53    3.61   -0.30    0.08   -0.55   -0.07    0.00    0.00       2.77   -2.36   -0.28
#  54    2.09   -0.82    0.69   -0.82   -0.14    0.00    0.00       0.99   -1.62   -0.28

@<TRIPOS>MOLECULE
      GL5243106_0       100
   54    56     0     0     0



@<TRIPOS>ATOM
      1 C1         17.1907   -24.9357    17.2506 C.3        1          -0.1424
      2 C2         15.8100   -25.3120    16.7092 C.3        1          -0.1175
      3 C3         14.9744   -25.9327    17.8304 C.3        1          -0.1619
      4 C4         15.1085   -24.0573    16.1852 C.3        1          -0.1157
      5 C5         15.9443   -23.4364    15.0639 C.3        1          -0.0830
      6 C6         15.2429   -22.1818    14.5398 C.3        1           0.1314
      7 N1         15.0929   -21.2147    15.6299 N.am       1          -0.7188
      8 C7         16.0593   -20.3040    15.8606 C.2        1           0.5557
      9 O1         17.0558   -20.2851    15.1639 O.2        1          -0.5513
     10 C8         15.9083   -19.3301    16.9584 C.ar       1          -0.1914
     11 C9         14.6332   -18.9486    17.3857 C.ar       1          -0.0356
     12 C10        14.4956   -18.0403    18.4103 C.ar       1          -0.2062
     13 C11        15.6251   -17.5013    19.0209 C.ar       1           0.2368
     14 N2         15.4823   -16.5843    20.0564 N.pl3      1          -0.8719
     15 C12        16.8959   -17.8794    18.5978 C.ar       1          -0.2103
     16 C13        17.0400   -18.7913    17.5773 C.ar       1          -0.0097
     17 C14        16.1008   -24.4465    13.9254 C.3        1          -0.0620
     18 C15        16.9240   -23.8350    12.8211 C.ar       1          -0.0309
     19 C16        18.2134   -23.4209    13.0716 C.ar       1          -0.1339
     20 C17        18.9778   -22.8576    12.0622 C.ar       1          -0.1031
     21 C18        18.4540   -22.7054    10.7910 C.ar       1          -0.0053
     22 O2         18.9744   -22.1946     9.6395 O.3        1          -0.3199
     23 C19        17.8585   -21.8821     8.7923 C.3        1           0.2050
     24 O3         16.8931   -22.8579     9.2124 O.3        1          -0.2782
     25 C20        17.1514   -23.1197    10.5208 C.ar       1           0.0753
     26 C21        16.3802   -23.6932    11.5389 C.ar       1          -0.1224
     27 C22        15.0050   -24.1396    11.2642 C.2        1           0.5205
     28 O4         14.7971   -25.2855    10.8896 O.co2      1          -0.6693
     29 O5         14.0696   -23.3648    11.4105 O.co2      1          -0.6745
     30 H1         17.7860   -24.4935    16.4519 H          1           0.0487
     31 H2         17.0791   -24.2160    18.0617 H          1           0.0504
     32 H3         17.6904   -25.8295    17.6242 H          1           0.0516
     33 H4         15.9216   -26.0314    15.8982 H          1           0.0838
     34 H5         13.9908   -26.2009    17.4448 H          1           0.0586
     35 H6         15.4742   -26.8266    18.2038 H          1           0.0644
     36 H7         14.8628   -25.2131    18.6416 H          1           0.0500
     37 H8         14.1250   -24.3253    15.7994 H          1           0.0666
     38 H9         14.9971   -23.3378    16.9962 H          1           0.0575
     39 H10        16.9280   -23.1684    15.4496 H          1           0.1009
     40 H11        15.8384   -21.7395    13.7411 H          1           0.0743
     41 H12        14.2593   -22.4497    14.1539 H          1           0.0629
     42 H13        14.2981   -21.2298    16.1856 H          1           0.4015
     43 H14        13.7570   -19.3659    16.9120 H          1           0.1243
     44 H15        13.5107   -17.7449    18.7407 H          1           0.1250
     45 H16        14.5970   -16.3205    20.3524 H          1           0.3993
     46 H17        16.2683   -16.2082    20.4826 H          1           0.3989
     47 H18        17.7699   -17.4597    19.0736 H          1           0.1245
     48 H19        18.0265   -19.0874    17.2523 H          1           0.1349
     49 H20        16.6005   -25.3403    14.2987 H          1           0.0507
     50 H21        15.1172   -24.7144    13.5396 H          1           0.1126
     51 H22        18.6311   -23.5356    14.0609 H          1           0.1284
     52 H23        19.9877   -22.5354    12.2693 H          1           0.1234
     53 H24        17.4978   -20.8706     8.9791 H          1           0.1225
     54 H25        18.1166   -22.0156     7.7417 H          1           0.0745
@<TRIPOS>BOND
     1    1    2 1
     2    1   30 1
     3    1   31 1
     4    1   32 1
     5    2    3 1
     6    2    4 1
     7    2   33 1
     8    3   34 1
     9    3   35 1
    10    3   36 1
    11    4    5 1
    12    4   37 1
    13    4   38 1
    14    5    6 1
    15    5   17 1
    16    5   39 1
    17    6    7 1
    18    6   40 1
    19    6   41 1
    20    7    8 am
    21    7   42 1
    22    8    9 2
    23    8   10 1
    24   10   16 ar
    25   10   11 ar
    26   11   12 ar
    27   11   43 1
    28   12   13 ar
    29   12   44 1
    30   13   14 1
    31   13   15 ar
    32   14   45 1
    33   14   46 1
    34   15   16 ar
    35   15   47 1
    36   16   48 1
    37   17   18 1
    38   17   49 1
    39   17   50 1
    40   18   26 ar
    41   18   19 ar
    42   19   20 ar
    43   19   51 1
    44   20   21 ar
    45   20   52 1
    46   21   25 ar
    47   21   22 1
    48   22   23 1
    49   23   24 1
    50   23   53 1
    51   23   54 1
    52   24   25 1
    53   25   26 ar
    54   26   27 1
    55   27   28 1
    56   27   29 2
