AVX17556_3, 3
##########                 Name:           AVX17556_0
##########          Protonation:                  100
##########               SMILES:   c1ccc2c(c1)C[C@@H]([C@H]2Cc3ccc4c(c3C(=O)[O-])OCO4)NC(=O)CCCC[NH3+]
##########            Long Name:   (5-azaniumylpentanoylamino)indan-1-yl]methyl]-1,3-benzodioxole-4-carboxylate
##########          FlexRecCode: 1
##########               Number:                  598
##########   Ligand Source File: /raid1/people/rgc/Examples/sampl4/screening/ligands/build_1//sampl4-hivint-00000
##########           GlobalRank: 55
##########                 Rank:                    1
##########               Setnum:                    5
##########             Matchnum:                21794
##########                Cloud:                    1
##########        Electrostatic:           -40.441833
##########        Van der Waals:           -12.446038
##########  Ligand Polar Desolv:            15.399870
########## Ligand Apolar Desolv:            -2.654756
##########      Internal Energy:             0.000000
##########      Receptor Energy: 0.0
########## Receptor Desolvation:             0.000000
########## Receptor Hydrophobic:             0.000000
##########         Total Energy: -40.14
##########        Ligand Charge:             0.000000
##########            Arbitrary:    +999.9990
##########     heavy atom count:   30
##########           pose count:    1
##########        Ligand Energy:             0.000000
# num electro vdwattr vdwrepu polsolv apolsol rdesolv rhydroe totalscore fullpol fullapo
#   1   -1.91   -0.15    0.00   -1.48    0.07    0.00    0.00      -3.47  -18.81    0.86
#   2    1.24    0.00    0.00    0.62    0.02    0.00    0.00       1.87   15.21    0.58
#   3    2.35    0.00    0.00    0.87    0.03    0.00    0.00       3.24   14.60    0.58
#   4    0.71    0.00    0.00    0.32    0.01    0.00    0.00       1.04   15.54    0.60
#   5   -0.02   -0.08    0.00    0.03   -0.03    0.00    0.00      -0.09    0.62   -0.49
#   6   -0.60   -0.13    0.00   -0.21   -0.02    0.00    0.00      -0.96   -2.56   -0.24
#   7   -0.16   -0.09    0.00   -0.05   -0.01    0.00    0.00      -0.30   -0.89   -0.19
#   8   -0.34   -0.21    0.02   -0.05   -0.03    0.00    0.00      -0.61   -0.49   -0.24
#   9    3.02   -0.30    0.02   -0.30   -0.08    0.00    0.00       2.36   -2.44   -0.66
#  10   -3.22   -0.24    0.03    0.59    0.04    0.00    0.00      -2.81    5.68    0.37
#  11   -5.73   -0.66    0.18    0.82    0.34    0.00    0.00      -5.05    5.02    2.05
#  12    1.99   -0.30    0.02   -0.23   -0.05    0.00    0.00       1.44   -1.48   -0.30
#  13   -0.80   -0.32    0.02    0.05   -0.05    0.00    0.00      -1.09    0.28   -0.27
#  14   -0.95   -0.96    0.27    0.09   -0.12    0.00    0.00      -1.66    0.33   -0.43
#  15   -0.68   -1.25    0.30    0.01   -0.15    0.00    0.00      -1.77    0.02   -0.47
#  16   -0.87   -1.43    0.27   -0.02   -0.18    0.00    0.00      -2.22   -0.04   -0.47
#  17   -1.02   -1.78    0.68    0.14   -0.21    0.00    0.00      -2.19    0.31   -0.47
#  18   -1.07   -1.81    1.14    0.35   -0.16    0.00    0.00      -1.54    0.89   -0.40
#  19   -1.09   -1.27    0.78    0.25   -0.10    0.00    0.00      -1.44    0.84   -0.35
#  20   -1.11   -0.46    0.06    0.12   -0.03    0.00    0.00      -1.42    0.56   -0.15
#  21   -1.88   -0.80    0.23    0.25   -0.05    0.00    0.00      -2.26    0.86   -0.19
#  22   -2.29   -1.66    0.49    0.37   -0.13    0.00    0.00      -3.21    0.93   -0.32
#  23   -3.47   -2.60    0.83    0.30   -0.19    0.00    0.00      -5.12    0.62   -0.38
#  24   -3.49   -4.04    2.44    0.31   -0.26    0.00    0.00      -5.05    0.55   -0.47
#  25    0.70   -4.52    5.38   -0.16   -0.19    0.00    0.00       1.21   -0.27   -0.33
#  26   -8.76   -3.82    2.23    2.40    0.35    0.00    0.00      -7.61    3.57    0.52
#  27    4.58   -2.39    0.86   -1.36    0.01    0.00    0.00       1.70   -2.14    0.02
#  28   -9.43   -2.40    1.31    3.76    0.24    0.00    0.00      -6.52    7.60    0.48
#  29    1.72   -3.17    4.72    0.14   -0.14    0.00    0.00       3.27    0.32   -0.33
#  30   -3.35   -1.62    0.59    1.47   -0.14    0.00    0.00      -3.04    4.10   -0.40
#  31   20.59   -1.33    0.60   -4.35   -0.03    0.00    0.00      15.48  -16.28   -0.11
#  32  -18.17   -0.70    0.15    5.83   -0.09    0.00    0.00     -12.99   26.88   -0.42
#  33  -35.48   -4.08   11.14    7.57   -0.12    0.00    0.00     -20.97   23.95   -0.39
#  34    0.26   -0.02    0.00    0.06   -0.01    0.00    0.00       0.29    2.56   -0.28
#  35    0.14   -0.01    0.00    0.05    0.00    0.00    0.00       0.17    3.31   -0.28
#  36    0.35   -0.06    0.00    0.15   -0.02    0.00    0.00       0.43    2.65   -0.28
#  37    0.64   -0.06    0.01    0.11   -0.02    0.00    0.00       0.68    1.80   -0.28
#  38    0.13   -0.02    0.00    0.00    0.00    0.00    0.00       0.11   -0.05   -0.28
#  39    0.08   -0.02    0.00    0.01   -0.01    0.00    0.00       0.06    0.42   -0.28
#  40    0.09   -0.05    0.00    0.06   -0.01    0.00    0.00       0.09    1.27   -0.28
#  41    0.26   -0.15    0.04    0.05   -0.04    0.00    0.00       0.16    0.38   -0.28
#  42    2.62   -0.03    0.00   -0.45    0.11    0.00    0.00       2.26   -2.27    0.58
#  43    1.73   -0.07    0.00   -0.05   -0.02    0.00    0.00       1.59   -0.78   -0.25
#  44    0.90   -0.10    0.00   -0.04   -0.03    0.00    0.00       0.73   -0.37   -0.28
#  45    0.38   -0.06    0.00   -0.02   -0.02    0.00    0.00       0.28   -0.26   -0.28
#  46    0.34   -0.26    0.07    0.07   -0.06    0.00    0.00       0.17    0.36   -0.28
#  47    0.73   -0.31    0.07    0.15   -0.08    0.00    0.00       0.55    0.49   -0.28
#  48    0.72   -0.37    0.08   -0.06   -0.11    0.00    0.00       0.27   -0.15   -0.28
#  49    1.48   -0.35    0.07   -0.24   -0.09    0.00    0.00       0.86   -0.74   -0.27
#  50    1.89   -0.15    0.02   -0.06   -0.03    0.00    0.00       1.68   -0.45   -0.23
#  51    3.46   -0.29    0.15   -0.03   -0.04    0.00    0.00       3.24   -0.20   -0.25
#  52    2.39   -0.39    0.18   -0.29   -0.06    0.00    0.00       1.83   -1.33   -0.28
#  53    3.72   -0.67    0.44   -0.48   -0.13    0.00    0.00       2.89   -1.04   -0.28
#  54    2.88   -1.25    1.68   -0.59   -0.18    0.00    0.00       2.53   -0.90   -0.28
#  55    2.51   -0.78    0.30   -0.86   -0.19    0.00    0.00       0.98   -1.25   -0.28
#  56    0.85   -1.15    0.87   -0.60   -0.17    0.00    0.00      -0.18   -1.01   -0.28

@<TRIPOS>MOLECULE
       AVX17556_0       100
   56    59     0     0     0



@<TRIPOS>ATOM
      1 N1         14.9828   -21.8469    16.8759 N.4        1          -0.6380
      2 H1         15.8192   -22.4062    16.9508 H          1           0.4339
      3 H2         14.5806   -21.9644    15.9580 H          1           0.4353
      4 H3         14.3175   -22.1413    17.5749 H          1           0.4368
      5 C1         15.3194   -20.4324    17.0854 C.3        1          -0.0098
      6 C2         16.3282   -19.9857    16.0255 C.3        1          -0.1528
      7 C3         16.6789   -18.5125    16.2437 C.3        1          -0.1028
      8 C4         17.6877   -18.0658    15.1837 C.3        1          -0.1435
      9 C5         17.0870   -18.2416    13.8129 C.2        1           0.5131
     10 O1         15.8880   -18.1434    13.6590 O.2        1          -0.5454
     11 N2         17.8822   -18.5077    12.7578 N.am       1          -0.7086
     12 C6         17.2983   -18.6785    11.4250 C.3        1           0.1497
     13 C7         17.9303   -17.6935    10.4188 C.3        1          -0.0870
     14 C8         19.0903   -18.4462     9.8030 C.ar       1          -0.0993
     15 C9         20.1847   -17.9827     9.0920 C.ar       1          -0.1118
     16 C10        21.1323   -18.8690     8.6191 C.ar       1          -0.1225
     17 C11        20.9888   -20.2236     8.8555 C.ar       1          -0.1205
     18 C12        19.8981   -20.6877     9.5643 C.ar       1          -0.0893
     19 C13        18.9467   -19.8004    10.0393 C.ar       1          -0.0785
     20 C14        17.6805   -20.0504    10.8302 C.3        1          -0.0586
     21 C15        16.5700   -20.5573     9.9079 C.3        1          -0.0569
     22 C16        16.7359   -22.0390     9.6889 C.ar       1          -0.0613
     23 C17        17.5053   -22.4990     8.6434 C.ar       1          -0.1065
     24 C18        17.6634   -23.8595     8.4353 C.ar       1          -0.1160
     25 C19        17.0499   -24.7731     9.2757 C.ar       1           0.0202
     26 O2         17.0503   -26.1384     9.2823 O.3        1          -0.3155
     27 C20        16.5979   -26.5155    10.5963 C.3        1           0.2110
     28 O3         15.7803   -25.4041    11.0081 O.3        1          -0.2996
     29 C21        16.2686   -24.3244    10.3375 C.ar       1           0.0452
     30 C22        16.1130   -22.9482    10.5513 C.ar       1          -0.0869
     31 C23        15.2944   -22.4617    11.6734 C.2        1           0.5372
     32 O4         15.8108   -22.2552    12.7631 O.co2      1          -0.6779
     33 O5         14.0973   -22.2637    11.5165 O.co2      1          -0.6824
     34 H4         14.4159   -19.8280    17.0045 H          1           0.1359
     35 H5         15.7539   -20.3052    18.0771 H          1           0.1343
     36 H6         17.2318   -20.5900    16.1064 H          1           0.0873
     37 H7         15.8938   -20.1127    15.0339 H          1           0.0898
     38 H8         15.7752   -17.9081    16.1628 H          1           0.0844
     39 H9         17.1133   -18.3853    17.2352 H          1           0.0812
     40 H10        17.9374   -17.0163    15.3392 H          1           0.0944
     41 H11        18.5913   -18.6702    15.2647 H          1           0.0998
     42 H12        18.8411   -18.5863    12.8808 H          1           0.4031
     43 H13        16.2153   -18.5596    11.4602 H          1           0.1088
     44 H14        17.2063   -17.4205     9.6511 H          1           0.0900
     45 H15        18.2888   -16.8031    10.9354 H          1           0.0736
     46 H16        20.2974   -16.9247     8.9066 H          1           0.1142
     47 H17        21.9844   -18.5045     8.0647 H          1           0.1193
     48 H18        21.7288   -20.9182     8.4862 H          1           0.1208
     49 H19        19.7866   -21.7460     9.7486 H          1           0.1202
     50 H20        17.8684   -20.7694    11.6276 H          1           0.1105
     51 H21        15.6003   -20.3641    10.3667 H          1           0.0903
     52 H22        16.6284   -20.0397     8.9504 H          1           0.0724
     53 H23        17.9879   -21.7950     7.9816 H          1           0.1283
     54 H24        18.2687   -24.2097     7.6123 H          1           0.1268
     55 H25        16.0063   -27.4298    10.5501 H          1           0.1259
     56 H26        17.4442   -26.6394    11.2720 H          1           0.0776
@<TRIPOS>BOND
     1    1    2 1
     2    1    3 1
     3    1    4 1
     4    1    5 1
     5    5    6 1
     6    5   34 1
     7    5   35 1
     8    6    7 1
     9    6   36 1
    10    6   37 1
    11    7    8 1
    12    7   38 1
    13    7   39 1
    14    8    9 1
    15    8   40 1
    16    8   41 1
    17    9   10 2
    18    9   11 am
    19   11   12 1
    20   11   42 1
    21   12   20 1
    22   12   13 1
    23   12   43 1
    24   13   14 1
    25   13   44 1
    26   13   45 1
    27   14   19 ar
    28   14   15 ar
    29   15   16 ar
    30   15   46 1
    31   16   17 ar
    32   16   47 1
    33   17   18 ar
    34   17   48 1
    35   18   19 ar
    36   18   49 1
    37   19   20 1
    38   20   21 1
    39   20   50 1
    40   21   22 1
    41   21   51 1
    42   21   52 1
    43   22   30 ar
    44   22   23 ar
    45   23   24 ar
    46   23   53 1
    47   24   25 ar
    48   24   54 1
    49   25   29 ar
    50   25   26 1
    51   26   27 1
    52   27   28 1
    53   27   55 1
    54   27   56 1
    55   28   29 1
    56   29   30 ar
    57   30   31 1
    58   31   32 1
    59   31   33 2
