pC2A03_0, 3
##########                 Name:             pC2A03_0
##########          Protonation:                  100
##########               SMILES:   c1cc(ccc1n2cc3n(c2=O)CCCC3)Br
##########            Long Name:   2-(4-bromophenyl)-5,6,7,8-tetrahydroimidazo[1,5-a]pyridin-3-one
##########          FlexRecCode: 1
##########               Number:                   94
##########   Ligand Source File: /raid1/people/rgc/Examples/sampl4/screening/ligands/build_1//sampl4-hivint-00000
##########           GlobalRank: 112
##########                 Rank:                    1
##########               Setnum:                    3
##########             Matchnum:                 3172
##########                Cloud:                    1
##########        Electrostatic:           -13.477932
##########        Van der Waals:           -16.988544
##########  Ligand Polar Desolv:             2.749449
########## Ligand Apolar Desolv:            -2.491387
##########      Internal Energy:             0.000000
##########      Receptor Energy: 0.0
########## Receptor Desolvation:             0.000000
########## Receptor Hydrophobic:             0.000000
##########         Total Energy: -30.21
##########        Ligand Charge:             0.000000
##########            Arbitrary:    +999.9990
##########     heavy atom count:   17
##########           pose count:    1
##########        Ligand Energy:             0.000000
# num electro vdwattr vdwrepu polsolv apolsol rdesolv rhydroe totalscore fullpol fullapo
#   1   -0.41   -4.79    1.93    0.03   -0.45    0.00    0.00      -3.68    0.08   -1.09
#   2   -1.47   -1.34    0.47    0.09   -0.11    0.00    0.00      -2.36    0.26   -0.30
#   3   -0.93   -0.88    0.21   -0.01   -0.12    0.00    0.00      -1.73   -0.03   -0.46
#   4   -2.66   -0.69    0.09   -0.03   -0.09    0.00    0.00      -3.37   -0.12   -0.44
#   5    3.65   -0.88    0.10   -0.16   -0.21    0.00    0.00       2.50   -0.54   -0.70
#   6   -2.25   -1.65    0.38    0.43   -0.18    0.00    0.00      -3.28    1.07   -0.44
#   7   -0.82   -1.77    0.51    0.12   -0.19    0.00    0.00      -2.14    0.29   -0.46
#   8  -10.67   -0.71    0.03    0.49    0.35    0.00    0.00     -10.51    1.76    1.27
#   9   -0.31   -0.79    0.06   -0.01   -0.24    0.00    0.00      -1.29   -0.05   -0.89
#  10    0.63   -0.67    0.04    0.01   -0.17    0.00    0.00      -0.16    0.05   -0.69
#  11   -0.36   -0.39    0.02   -0.06   -0.06    0.00    0.00      -0.85   -0.27   -0.27
#  12   -0.57   -0.59    0.09   -0.16   -0.06    0.00    0.00      -1.30   -0.67   -0.25
#  13   -1.93   -0.56    0.06   -0.12   -0.07    0.00    0.00      -2.62   -0.44   -0.25
#  14    3.52   -0.75    0.11   -0.03   -0.18    0.00    0.00       2.67   -0.10   -0.53
#  15  -13.96   -0.84    0.10    0.43    0.47    0.00    0.00     -13.80    1.55    1.71
#  16   21.50   -0.96    0.14   -1.26   -0.60    0.00    0.00      18.83   -4.46   -2.12
#  17  -24.81   -1.85    0.87    2.58    0.13    0.00    0.00     -23.08    7.53    0.38
#  18    1.59   -0.12    0.01    0.07   -0.03    0.00    0.00       1.52    0.65   -0.28
#  19    2.66   -0.09    0.00    0.09   -0.02    0.00    0.00       2.65    1.07   -0.23
#  20    2.41   -0.65    0.46   -0.44   -0.07    0.00    0.00       1.71   -1.22   -0.19
#  21    1.40   -0.49    0.18   -0.20   -0.11    0.00    0.00       0.79   -0.50   -0.28
#  22    1.76   -0.20    0.02    0.38   -0.05    0.00    0.00       1.91    1.75   -0.24
#  23    0.41   -0.22    0.05    0.19   -0.05    0.00    0.00       0.38    1.08   -0.28
#  24    0.55   -0.06    0.00    0.04   -0.01    0.00    0.00       0.52    0.82   -0.28
#  25    0.01   -0.50    0.31    0.07   -0.07    0.00    0.00      -0.18    0.27   -0.28
#  26    0.08   -0.12    0.01    0.09   -0.03    0.00    0.00       0.04    0.83   -0.28
#  27    1.23   -0.23    0.05    0.14   -0.07    0.00    0.00       1.12    0.61   -0.28
#  28    1.04   -0.16    0.04    0.04   -0.04    0.00    0.00       0.91    0.25   -0.28
#  29    1.80   -0.35    0.15   -0.01   -0.08    0.00    0.00       1.50   -0.05   -0.28
#  30    3.45   -0.35    0.14   -0.06   -0.09    0.00    0.00       3.09   -0.20   -0.28

@<TRIPOS>MOLECULE
         pC2A03_0       100
   30    32     0     0     0



@<TRIPOS>ATOM
      1 Br1        20.5619   -19.1056     8.1736 Br         1          -0.0461
      2 C1         19.4449   -20.0380     9.3815 C.ar       1          -0.1107
      3 C2         18.4327   -19.3670    10.0446 C.ar       1          -0.0630
      4 C3         17.6154   -20.0456    10.9272 C.ar       1          -0.1404
      5 C4         17.8100   -21.4025    11.1486 C.ar       1           0.1810
      6 C5         18.8262   -22.0735    10.4815 C.ar       1          -0.1391
      7 C6         19.6375   -21.3913     9.5962 C.ar       1          -0.0609
      8 N1         16.9825   -22.0933    12.0440 N.am       1          -0.4795
      9 C7         17.2070   -22.2518    13.4069 C.2        1          -0.0213
     10 C8         16.2105   -22.9664    13.8996 C.2        1           0.0418
     11 C9         15.9758   -23.3770    15.3332 C.3        1          -0.0509
     12 C10        14.9586   -24.5268    15.3348 C.3        1          -0.1249
     13 C11        13.7482   -24.1270    14.4852 C.3        1          -0.1351
     14 C12        14.1456   -24.1099    13.0044 C.3        1           0.1312
     15 N2         15.3475   -23.2830    12.8530 N.am       1          -0.5311
     16 C13        15.8255   -22.7159    11.7351 C.2        1           0.6591
     17 O1         15.3077   -22.7580    10.6336 O.2        1          -0.5520
     18 H1         18.2818   -18.3117     9.8720 H          1           0.1412
     19 H2         16.8260   -19.5212    11.4451 H          1           0.1384
     20 H3         18.9798   -23.1288    10.6521 H          1           0.1631
     21 H4         20.4257   -21.9135     9.0743 H          1           0.1407
     22 H5         18.0462   -21.8612    13.9634 H          1           0.1865
     23 H6         16.9123   -23.7125    15.7786 H          1           0.0937
     24 H7         15.5795   -22.5333    15.8981 H          1           0.0900
     25 H8         15.4190   -25.4213    14.9151 H          1           0.0712
     26 H9         14.6365   -24.7268    16.3568 H          1           0.0809
     27 H10        12.9440   -24.8469    14.6372 H          1           0.0904
     28 H11        13.4082   -23.1347    14.7815 H          1           0.0755
     29 H12        14.3556   -25.1258    12.6701 H          1           0.0801
     30 H13        13.3337   -23.6875    12.4125 H          1           0.0903
@<TRIPOS>BOND
     1    1    2 1
     2    2    7 ar
     3    2    3 ar
     4    3    4 ar
     5    3   18 1
     6    4    5 ar
     7    4   19 1
     8    5    6 ar
     9    5    8 1
    10    6    7 ar
    11    6   20 1
    12    7   21 1
    13    8   16 am
    14    8    9 1
    15    9   10 2
    16    9   22 1
    17   10   15 1
    18   10   11 1
    19   11   12 1
    20   11   23 1
    21   11   24 1
    22   12   13 1
    23   12   25 1
    24   12   26 1
    25   13   14 1
    26   13   27 1
    27   13   28 1
    28   14   15 1
    29   14   29 1
    30   14   30 1
    31   15   16 am
    32   16   17 2
