AVX17375_2, 3
##########                 Name:           AVX17375_0
##########          Protonation:                  100
##########               SMILES:   c1ccc2c(c1)C[C@H]([C@@H]2Cc3ccc4c(c3C(=O)[O-])OCO4)O
##########            Long Name:   5-[[(1R,2R)-2-hydroxyindan-1-yl]methyl]-1,3-benzodioxole-4-carboxylate
##########          FlexRecCode: 1
##########               Number:                  409
##########   Ligand Source File: /raid1/people/rgc/Examples/sampl4/screening/ligands/build_1//sampl4-hivint-00000
##########           GlobalRank: 67
##########                 Rank:                    1
##########               Setnum:                    2
##########             Matchnum:                 4806
##########                Cloud:                    1
##########        Electrostatic:           -21.779991
##########        Van der Waals:           -30.478460
##########  Ligand Polar Desolv:            26.667168
########## Ligand Apolar Desolv:            -2.564668
##########      Internal Energy:             0.000000
##########      Receptor Energy: 0.0
########## Receptor Desolvation:             0.000000
########## Receptor Hydrophobic:             0.000000
##########         Total Energy: -28.16
##########        Ligand Charge:            -1.000000
##########            Arbitrary:    +999.9990
##########     heavy atom count:   23
##########           pose count:    1
##########        Ligand Energy:             0.000000
# num electro vdwattr vdwrepu polsolv apolsol rdesolv rhydroe totalscore fullpol fullapo
#   1    5.26   -0.60    0.06    2.20    0.40    0.00    0.00       7.33    9.31    1.70
#   2   -0.49   -0.37    0.02   -0.32   -0.03    0.00    0.00      -1.18   -1.71   -0.15
#   3    0.34   -0.29    0.02    0.15   -0.04    0.00    0.00       0.17    0.98   -0.28
#   4    0.97   -0.62    0.06    0.31   -0.09    0.00    0.00       0.63    1.55   -0.43
#   5    1.01   -0.64    0.06    0.22   -0.10    0.00    0.00       0.55    1.00   -0.47
#   6    1.95   -1.18    0.25    0.33   -0.15    0.00    0.00       1.20    1.06   -0.47
#   7    3.47   -1.80    0.42    0.70   -0.18    0.00    0.00       2.61    1.85   -0.47
#   8    2.63   -1.72    0.49    1.15   -0.17    0.00    0.00       2.37    3.04   -0.45
#   9    1.00   -0.90    0.08    0.72   -0.11    0.00    0.00       0.80    2.64   -0.39
#  10    0.26   -0.52    0.02    0.18   -0.04    0.00    0.00      -0.10    0.61   -0.14
#  11    0.22   -1.00    0.16    0.46   -0.06    0.00    0.00      -0.23    1.26   -0.17
#  12   -0.04   -1.68    0.28    0.26   -0.13    0.00    0.00      -1.32    0.63   -0.32
#  13    0.46   -2.67    1.14    0.56   -0.22    0.00    0.00      -0.73    1.17   -0.45
#  14   -0.13   -3.22    1.68    0.24   -0.25    0.00    0.00      -1.67    0.45   -0.47
#  15   -0.04   -2.51    0.61    0.06   -0.19    0.00    0.00      -2.08    0.10   -0.33
#  16   -2.84   -2.58    0.49    3.53    0.35    0.00    0.00      -1.04    5.22    0.52
#  17    2.71   -2.06    0.32   -2.30    0.01    0.00    0.00      -1.30   -3.34    0.02
#  18   -5.22   -3.20    1.68    6.39    0.21    0.00    0.00      -0.14   10.20    0.34
#  19    1.03   -2.05    0.27   -0.16   -0.18    0.00    0.00      -1.09   -0.30   -0.32
#  20   -1.34   -1.60    0.18    3.02   -0.19    0.00    0.00       0.08    6.67   -0.41
#  21    8.46   -1.99    0.78   -8.01   -0.07    0.00    0.00      -0.84  -18.90   -0.16
#  22  -12.65   -2.92    0.96   13.41   -0.14    0.00    0.00      -1.35   27.75   -0.29
#  23  -10.06   -1.49    0.70   11.46   -0.19    0.00    0.00       0.42   33.99   -0.56
#  24   -5.91   -0.01    0.00   -0.40    0.14    0.00    0.00      -6.18   -3.45    1.24
#  25    0.08   -0.14    0.02   -0.18   -0.04    0.00    0.00      -0.25   -1.37   -0.27
#  26   -0.30   -0.05    0.00   -0.04   -0.01    0.00    0.00      -0.40   -0.89   -0.28
#  27    0.20   -0.16    0.06   -0.13   -0.03    0.00    0.00      -0.07   -1.10   -0.28
#  28   -0.46   -0.08    0.01   -0.09   -0.02    0.00    0.00      -0.65   -1.21   -0.28
#  29   -1.13   -0.33    0.15   -0.28   -0.06    0.00    0.00      -1.64   -1.23   -0.28
#  30   -4.21   -0.53    0.18   -0.76   -0.11    0.00    0.00      -5.43   -1.88   -0.28
#  31   -4.79   -0.50    0.27   -0.54   -0.09    0.00    0.00      -5.65   -1.65   -0.27
#  32   -1.66   -0.17    0.01    0.12   -0.04    0.00    0.00      -1.74    0.70   -0.22
#  33   -1.29   -0.71    0.47   -0.33   -0.08    0.00    0.00      -1.94   -0.82   -0.20
#  34    0.21   -0.30    0.10   -0.57   -0.07    0.00    0.00      -0.64   -2.18   -0.27
#  35   -1.47   -0.51    0.15   -0.80   -0.11    0.00    0.00      -2.73   -2.09   -0.28
#  36   -0.40   -0.70    0.34   -1.04   -0.14    0.00    0.00      -1.95   -2.02   -0.28
#  37    1.47   -0.93    0.27   -1.72   -0.19    0.00    0.00      -1.09   -2.57   -0.28
#  38    0.94   -0.69    0.17   -1.14   -0.18    0.00    0.00      -0.89   -1.73   -0.28

@<TRIPOS>MOLECULE
       AVX17375_0       100
   38    41     0     0     0



@<TRIPOS>ATOM
      1 O1          1.9895   -22.7278    -2.6708 O.3        1          -0.5456
      2 C1          2.4289   -22.8452    -1.3162 C.3        1           0.1043
      3 C2          1.2557   -22.7046    -0.3405 C.3        1          -0.1122
      4 C3          1.1083   -21.2180    -0.1322 C.ar       1          -0.1067
      5 C4          0.0351   -20.4623     0.3081 C.ar       1          -0.1137
      6 C5          0.1508   -19.0900     0.4156 C.ar       1          -0.1310
      7 C6          1.3408   -18.4694     0.0835 C.ar       1          -0.1236
      8 C7          2.4123   -19.2225    -0.3555 C.ar       1          -0.0907
      9 C8          2.2974   -20.5978    -0.4641 C.ar       1          -0.0605
     10 C9          3.2888   -21.6442    -0.9081 C.3        1          -0.0252
     11 C10         4.2187   -22.0218     0.2468 C.3        1          -0.0634
     12 C11         5.4412   -22.7139    -0.2984 C.ar       1          -0.0255
     13 C12         6.2676   -22.0574    -1.1831 C.ar       1          -0.1307
     14 C13         7.3938   -22.6862    -1.6887 C.ar       1          -0.1015
     15 C14         7.7022   -23.9821    -1.3108 C.ar       1          -0.0048
     16 O2          8.7339   -24.8053    -1.6605 O.3        1          -0.3208
     17 C15         8.7537   -25.8409    -0.6603 C.3        1           0.2055
     18 O3          7.3887   -25.9040    -0.2066 O.3        1          -0.2790
     19 C16         6.8769   -24.6600    -0.4170 C.ar       1           0.0761
     20 C17         5.7407   -24.0220     0.0986 C.ar       1          -0.1171
     21 C18         4.8639   -24.7259     1.0482 C.2        1           0.5230
     22 O4          5.0723   -24.6422     2.2509 O.co2      1          -0.6736
     23 O5          3.9266   -25.3949     0.6350 O.co2      1          -0.6746
     24 H1          1.4544   -21.9412    -2.8441 H          1           0.3683
     25 H2          2.9625   -23.7825    -1.1581 H          1           0.0656
     26 H3          0.3469   -23.1190    -0.7768 H          1           0.0854
     27 H4          1.4850   -23.1995     0.6032 H          1           0.0697
     28 H5         -0.8946   -20.9467     0.5676 H          1           0.1127
     29 H6         -0.6879   -18.5023     0.7587 H          1           0.1171
     30 H7          1.4323   -17.3966     0.1668 H          1           0.1199
     31 H8          3.3416   -18.7372    -0.6153 H          1           0.1311
     32 H9          3.8662   -21.2835    -1.7595 H          1           0.1143
     33 H10         4.5192   -21.1204     0.7809 H          1           0.1186
     34 H11         3.6962   -22.6916     0.9297 H          1           0.0480
     35 H12         6.0361   -21.0466    -1.4849 H          1           0.1232
     36 H13         8.0350   -22.1625    -2.3822 H          1           0.1217
     37 H14         9.0557   -26.7917    -1.0993 H          1           0.1218
     38 H15         9.4178   -25.5685     0.1600 H          1           0.0739
@<TRIPOS>BOND
     1    1    2 1
     2    1   24 1
     3    2   10 1
     4    2    3 1
     5    2   25 1
     6    3    4 1
     7    3   26 1
     8    3   27 1
     9    4    9 ar
    10    4    5 ar
    11    5    6 ar
    12    5   28 1
    13    6    7 ar
    14    6   29 1
    15    7    8 ar
    16    7   30 1
    17    8    9 ar
    18    8   31 1
    19    9   10 1
    20   10   11 1
    21   10   32 1
    22   11   12 1
    23   11   33 1
    24   11   34 1
    25   12   20 ar
    26   12   13 ar
    27   13   14 ar
    28   13   35 1
    29   14   15 ar
    30   14   36 1
    31   15   19 ar
    32   15   16 1
    33   16   17 1
    34   17   18 1
    35   17   37 1
    36   17   38 1
    37   18   19 1
    38   19   20 ar
    39   20   21 1
    40   21   22 1
    41   21   23 2
