AVX101122_1, 3
##########                 Name:          AVX101122_0
##########          Protonation:                   82
##########               SMILES:   C[NH+](Cc1ccccc1C(=O)NCc2ccc(cc2)OC)Cc3cccc(c3C(=O)[O-])OC
##########            Long Name:   4-methoxyphenyl)methylcarbamoyl]phenyl]methyl-methyl-ammonio]methyl]benzoate
##########          FlexRecCode: 1
##########               Number:                   71
##########   Ligand Source File: /raid1/people/rgc/Examples/sampl4/screening/ligands/build_1//sampl4-hivint-00000
##########           GlobalRank: 27
##########                 Rank:                    1
##########               Setnum:                  354
##########             Matchnum:                 6338
##########                Cloud:                    1
##########        Electrostatic:           -20.804789
##########        Van der Waals:           -20.875935
##########  Ligand Polar Desolv:             8.739092
########## Ligand Apolar Desolv:            -3.028390
##########      Internal Energy:             0.000000
##########      Receptor Energy: 0.0
########## Receptor Desolvation:             0.000000
########## Receptor Hydrophobic:             0.000000
##########         Total Energy: -35.97
##########        Ligand Charge:             0.000000
##########            Arbitrary:    +999.9990
##########     heavy atom count:   33
##########           pose count:    1
##########        Ligand Energy:             0.000000
# num electro vdwattr vdwrepu polsolv apolsol rdesolv rhydroe totalscore fullpol fullapo
#   1    0.01   -0.01    0.00    0.00    0.00    0.00    0.00       0.01    0.03    0.03
#   2   -0.19   -0.02    0.00    0.01    0.01    0.00    0.00      -0.20    0.46    0.93
#   3    0.10   -0.04    0.00    0.00   -0.01    0.00    0.00       0.05   -0.09   -0.31
#   4   -0.21   -0.11    0.00   -0.02   -0.02    0.00    0.00      -0.35   -0.42   -0.42
#   5   -0.07   -0.17    0.01   -0.01   -0.03    0.00    0.00      -0.27   -0.18   -0.45
#   6   -0.12   -0.11    0.00   -0.02   -0.02    0.00    0.00      -0.27   -0.37   -0.37
#   7   -0.11   -0.10    0.00    0.03   -0.03    0.00    0.00      -0.20    0.50   -0.44
#   8    1.11   -0.31    0.02   -0.30    0.27    0.00    0.00       0.79   -2.62    2.32
#   9   -2.28   -0.47    0.10    0.17   -0.10    0.00    0.00      -2.58    1.16   -0.65
#  10    1.62   -0.59    0.24    0.02    0.05    0.00    0.00       1.34    0.13    0.32
#  11    0.89   -0.96    0.42   -0.12   -0.09    0.00    0.00       0.13   -0.52   -0.41
#  12    0.18   -0.92    0.40   -0.08   -0.09    0.00    0.00      -0.52   -0.39   -0.44
#  13    0.45   -1.22    0.51   -0.19   -0.12    0.00    0.00      -0.58   -0.72   -0.47
#  14    1.28   -2.48    2.53   -0.15   -0.16    0.00    0.00       1.03   -0.43   -0.47
#  15    3.69   -2.14    0.81   -0.27   -0.13    0.00    0.00       1.96   -0.73   -0.34
#  16    0.96   -1.20    0.25   -0.08   -0.12    0.00    0.00      -0.20   -0.25   -0.39
#  17   -1.10   -0.60    0.05    0.09   -0.08    0.00    0.00      -1.63    0.32   -0.26
#  18    5.41   -0.58    0.03   -0.48    0.04    0.00    0.00       4.42   -1.99    0.16
#  19   -3.08   -0.01    0.00    0.03    0.03    0.00    0.00      -3.03    0.29    0.33
#  20    1.10   -1.43    0.60   -0.28   -0.14    0.00    0.00      -0.15   -0.84   -0.41
#  21   -0.79   -0.50    0.02    0.06   -0.09    0.00    0.00      -1.30    0.20   -0.29
#  22    0.51   -0.96    0.08   -0.01   -0.10    0.00    0.00      -0.48   -0.02   -0.30
#  23    0.90   -1.63    0.26   -0.31   -0.17    0.00    0.00      -0.96   -0.73   -0.40
#  24   -0.22   -2.23    0.64   -0.12   -0.22    0.00    0.00      -2.15   -0.25   -0.47
#  25   -2.21   -1.70    0.21    0.18   -0.19    0.00    0.00      -3.70    0.40   -0.42
#  26    1.72   -1.20    0.12   -0.38   -0.12    0.00    0.00       0.14   -0.97   -0.31
#  27   -4.29   -1.65    0.93    1.81    0.14    0.00    0.00      -3.06    4.80    0.36
#  28    0.29   -1.68    0.56   -0.03    0.01    0.00    0.00      -0.83   -0.06    0.03
#  29   -0.39   -0.82    0.06    0.70   -0.12    0.00    0.00      -0.57    2.39   -0.40
#  30    1.26   -0.62    0.08   -1.77   -0.03    0.00    0.00      -1.07   -9.01   -0.15
#  31   -3.68   -1.68    2.04    2.39   -0.06    0.00    0.00      -0.99   11.77   -0.30
#  32   -0.75   -0.32    0.01    2.95   -0.09    0.00    0.00       1.80   19.72   -0.59
#  33   -0.03   -0.05    0.00    0.00   -0.01    0.00    0.00      -0.10   -0.08   -0.45
#  34   -0.08   -0.03    0.00    0.00   -0.01    0.00    0.00      -0.12    0.11   -0.46
#  35    0.02    0.00    0.00    0.00    0.00    0.00    0.00       0.02    0.33   -0.26
#  36    0.02    0.00    0.00    0.00    0.00    0.00    0.00       0.02    0.28   -0.26
#  37    0.05    0.00    0.00    0.00    0.00    0.00    0.00       0.05    0.50   -0.28
#  38    0.14   -0.02    0.00    0.01    0.00    0.00    0.00       0.13    0.63   -0.22
#  39    0.19   -0.05    0.00    0.04   -0.01    0.00    0.00       0.18    0.93   -0.28
#  40   -0.03   -0.03    0.00    0.00   -0.01    0.00    0.00      -0.07    0.07   -0.28
#  41   -0.11   -0.02    0.00    0.01   -0.01    0.00    0.00      -0.13    0.27   -0.28
#  42    0.06   -0.01    0.00    0.24    0.04    0.00    0.00       0.34    2.41    0.44
#  43   -0.02   -0.09    0.01    0.11   -0.02    0.00    0.00      -0.01    1.32   -0.22
#  44   -0.15   -0.13    0.02    0.16   -0.04    0.00    0.00      -0.13    1.30   -0.28
#  45   -3.14   -0.57    0.54    0.35   -0.09    0.00    0.00      -2.92    1.08   -0.28
#  46   -4.80   -0.49    0.13    0.33   -0.07    0.00    0.00      -4.90    0.82   -0.18
#  47   -2.83   -0.14    0.01   -0.02   -0.04    0.00    0.00      -3.02   -0.10   -0.26
#  48   -4.89   -0.36    0.16    0.31   -0.05    0.00    0.00      -4.83    1.36   -0.23
#  49   -1.25   -0.53    0.20    1.00   -0.10    0.00    0.00      -0.67    2.84   -0.28
#  50   -3.50   -0.65    0.50    0.48   -0.05    0.00    0.00      -3.23    1.61   -0.18
#  51   -1.67   -0.50    0.22    0.38   -0.06    0.00    0.00      -1.63    1.36   -0.23
#  52   -2.46   -0.13    0.01   -0.04   -0.03    0.00    0.00      -2.66   -0.33   -0.20
#  53   -2.67   -0.19    0.01    0.41   -0.05    0.00    0.00      -2.49    2.18   -0.27
#  54   -1.49   -0.35    0.05    0.93   -0.10    0.00    0.00      -0.96    2.62   -0.28
#  55    0.40   -0.75    0.56    0.59   -0.11    0.00    0.00       0.69    1.54   -0.28
#  56    1.98   -0.39    0.04    0.01   -0.09    0.00    0.00       1.56    0.03   -0.22
#  57    0.77   -0.59    0.31   -0.10   -0.10    0.00    0.00       0.30   -0.24   -0.26
#  58    0.95   -0.84    0.41   -0.10   -0.13    0.00    0.00       0.29   -0.20   -0.26
#  59    1.63   -0.70    1.00   -0.20   -0.11    0.00    0.00       1.62   -0.54   -0.28
#  60    0.04   -0.01    0.00    0.00    0.00    0.00    0.00       0.04    0.31   -0.28
#  61    0.06    0.00    0.00    0.00    0.00    0.00    0.00       0.05   -0.11   -0.28

@<TRIPOS>MOLECULE
      AVX101122_0        82
   61    63     0     0     0



@<TRIPOS>ATOM
      1 C1         -5.4165   -25.8096     4.6712 C.3        1           0.0255
      2 O1         -4.0246   -26.0778     4.4898 O.3        1          -0.3155
      3 C2         -3.4078   -25.4600     3.4482 C.ar       1           0.1398
      4 C3         -2.0588   -25.6792     3.2106 C.ar       1          -0.2113
      5 C4         -1.4345   -25.0511     2.1502 C.ar       1          -0.0578
      6 C5         -2.1530   -24.2043     1.3266 C.ar       1          -0.1557
      7 C6         -1.4693   -23.5201     0.1709 C.3        1           0.1665
      8 N1         -0.9302   -22.2324     0.6155 N.am       1          -0.7160
      9 C7         -1.3477   -21.0903     0.0343 C.2        1           0.5585
     10 O2         -2.1715   -21.1287    -0.8587 O.2        1          -0.5358
     11 C8         -0.8039   -19.7908     0.4829 C.ar       1          -0.1188
     12 C9         -1.4296   -19.0873     1.5135 C.ar       1          -0.0719
     13 C10        -0.9168   -17.8756     1.9278 C.ar       1          -0.1150
     14 C11         0.2149   -17.3570     1.3236 C.ar       1          -0.0711
     15 C12         0.8399   -18.0490     0.3018 C.ar       1          -0.1447
     16 C13         0.3405   -19.2649    -0.1182 C.ar       1          -0.0547
     17 C14         1.0258   -20.0202    -1.2277 C.3        1           0.0509
     18 N2          2.0381   -20.9183    -0.6561 N.4        1          -0.3727
     19 H1          1.5895   -21.7517    -0.3066 H          1           0.4296
     20 C15         2.7314   -20.2367     0.4453 C.3        1          -0.0635
     21 C16         3.0104   -21.2843    -1.6947 C.3        1           0.0511
     22 C17         4.0489   -22.2056    -1.1082 C.ar       1          -0.0852
     23 C18         5.3843   -21.9985    -1.3751 C.ar       1          -0.1565
     24 C19         6.3439   -22.8418    -0.8385 C.ar       1          -0.0786
     25 C20         5.9733   -23.8987    -0.0308 C.ar       1          -0.2076
     26 C21         4.6337   -24.1236     0.2489 C.ar       1           0.1660
     27 O3          4.2682   -25.1614     1.0417 O.3        1          -0.2656
     28 C22         4.1869   -24.9080     2.4457 C.3        1           0.0183
     29 C23         3.6587   -23.2686    -0.2876 C.ar       1          -0.1587
     30 C24         2.2343   -23.4926     0.0070 C.2        1           0.5202
     31 O4          1.7193   -22.9578     0.9793 O.co2      1          -0.7055
     32 O5          1.5652   -24.2135    -0.7206 O.co2      1          -0.6309
     33 C25        -3.4977   -23.9846     1.5610 C.ar       1          -0.0575
     34 C26        -4.1279   -24.6144     2.6168 C.ar       1          -0.1531
     35 H2         -5.7835   -26.3633     5.5353 H          1           0.0571
     36 H3         -5.5631   -24.7420     4.8347 H          1           0.0576
     37 H4         -5.9646   -26.1193     3.7814 H          1           0.1032
     38 H5         -1.4970   -26.3400     3.8541 H          1           0.1312
     39 H6         -0.3842   -25.2214     1.9648 H          1           0.1271
     40 H7         -0.6562   -24.1479    -0.1936 H          1           0.0822
     41 H8         -2.1888   -23.3553    -0.6311 H          1           0.0800
     42 H9         -0.2728   -22.2018     1.3280 H          1           0.4030
     43 H10        -2.3133   -19.4906     1.9855 H          1           0.1346
     44 H11        -1.3998   -17.3302     2.7251 H          1           0.1388
     45 H12         0.6121   -16.4075     1.6511 H          1           0.1390
     46 H13         1.7227   -17.6385    -0.1659 H          1           0.1276
     47 H14         0.2892   -20.6062    -1.7773 H          1           0.1517
     48 H15         1.5070   -19.3143    -1.9044 H          1           0.1485
     49 H16         3.4824   -20.9030     0.8695 H          1           0.1176
     50 H17         3.2159   -19.3365     0.0677 H          1           0.1188
     51 H18         2.0099   -19.9651     1.2158 H          1           0.1193
     52 H19         2.4959   -21.7900    -2.5118 H          1           0.1686
     53 H20         3.4951   -20.3840    -2.0721 H          1           0.1139
     54 H21         5.6848   -21.1751    -2.0059 H          1           0.1244
     55 H22         7.3884   -22.6718    -1.0537 H          1           0.1273
     56 H23         6.7276   -24.5512     0.3834 H          1           0.1309
     57 H24         3.8851   -25.8190     2.9625 H          1           0.0525
     58 H25         5.1614   -24.5872     2.8140 H          1           0.0516
     59 H26         3.4523   -24.1245     2.6316 H          1           0.1022
     60 H27        -4.0568   -23.3229     0.9160 H          1           0.1333
     61 H28        -5.1792   -24.4453     2.7974 H          1           0.1349
@<TRIPOS>BOND
     1    1    2 1
     2    1   35 1
     3    1   36 1
     4    1   37 1
     5    2    3 1
     6    3   34 ar
     7    3    4 ar
     8    4    5 ar
     9    4   38 1
    10    5    6 ar
    11    5   39 1
    12    6    7 1
    13    6   33 ar
    14    7    8 1
    15    7   40 1
    16    7   41 1
    17    8    9 am
    18    8   42 1
    19    9   10 2
    20    9   11 1
    21   11   16 ar
    22   11   12 ar
    23   12   13 ar
    24   12   43 1
    25   13   14 ar
    26   13   44 1
    27   14   15 ar
    28   14   45 1
    29   15   16 ar
    30   15   46 1
    31   16   17 1
    32   17   18 1
    33   17   47 1
    34   17   48 1
    35   18   19 1
    36   18   20 1
    37   18   21 1
    38   20   49 1
    39   20   50 1
    40   20   51 1
    41   21   22 1
    42   21   52 1
    43   21   53 1
    44   22   29 ar
    45   22   23 ar
    46   23   24 ar
    47   23   54 1
    48   24   25 ar
    49   24   55 1
    50   25   26 ar
    51   25   56 1
    52   26   27 1
    53   26   29 ar
    54   27   28 1
    55   28   57 1
    56   28   58 1
    57   28   59 1
    58   29   30 1
    59   30   31 1
    60   30   32 2
    61   33   34 ar
    62   33   60 1
    63   34   61 1
