AVX17679_0, 3
##########                 Name:           AVX17679_0
##########          Protonation:                  100
##########               SMILES:   c1ccc2c(c1)c(no2)CC(=O)[O-]
##########            Long Name:   2-(1,2-benzoxazol-3-yl)acetate
##########          FlexRecCode: 1
##########               Number:                   13
##########   Ligand Source File: /raid1/people/rgc/Examples/sampl4/screening/ligands/build_1//sampl4-hivint-00000
##########           GlobalRank: 112
##########                 Rank:                    1
##########               Setnum:                    4
##########             Matchnum:                14366
##########                Cloud:                    1
##########        Electrostatic:           -15.884439
##########        Van der Waals:           -19.940670
##########  Ligand Polar Desolv:            16.020447
########## Ligand Apolar Desolv:            -2.246989
##########      Internal Energy:             0.000000
##########      Receptor Energy: 0.0
########## Receptor Desolvation:             0.000000
########## Receptor Hydrophobic:             0.000000
##########         Total Energy: -22.05
##########        Ligand Charge:            -1.000000
##########            Arbitrary:    +999.9990
##########     heavy atom count:   13
##########           pose count:    1
##########        Ligand Energy:             0.000000
# num electro vdwattr vdwrepu polsolv apolsol rdesolv rhydroe totalscore fullpol fullapo
#   1   -9.44   -1.52    0.91    9.01   -0.13    0.00    0.00      -1.17   28.74   -0.41
#   2    6.17   -1.28    0.34   -5.12   -0.05    0.00    0.00       0.07  -16.02   -0.16
#   3   -5.49   -0.92    0.32    6.31   -0.10    0.00    0.00       0.13   28.18   -0.43
#   4   -1.90   -1.78    0.95    1.01   -0.12    0.00    0.00      -1.84    2.29   -0.28
#   5    3.12   -2.67    1.24   -1.71   -0.32    0.00    0.00      -0.34   -3.54   -0.66
#   6   -6.23   -4.96    3.82    5.30    0.65    0.00    0.00      -1.43    9.82    1.20
#   7   -1.81   -2.67    0.59    1.83   -0.06    0.00    0.00      -2.12    2.91   -0.09
#   8    0.95   -2.34    0.55   -0.17   -0.20    0.00    0.00      -1.21   -0.30   -0.35
#   9   -0.98   -2.81    0.95    0.88   -0.29    0.00    0.00      -2.25    1.46   -0.48
#  10   -0.04   -3.10    1.17   -0.01   -0.27    0.00    0.00      -2.23   -0.01   -0.47
#  11    0.68   -2.39    0.62    0.47   -0.23    0.00    0.00      -0.86    0.94   -0.47
#  12    0.03   -1.87    0.39    0.56   -0.20    0.00    0.00      -1.09    1.30   -0.47
#  13   -1.59   -1.97    0.37    2.47   -0.21    0.00    0.00      -0.93    5.30   -0.44
#  14    0.78   -0.69    0.59   -1.33   -0.11    0.00    0.00      -0.76   -3.46   -0.28
#  15    1.38   -0.79    0.43   -1.42   -0.14    0.00    0.00      -0.54   -2.84   -0.28
#  16    0.88   -0.53    0.08   -0.80   -0.14    0.00    0.00      -0.50   -1.63   -0.28
#  17   -0.24   -0.63    0.21   -0.29   -0.15    0.00    0.00      -1.11   -0.53   -0.28
#  18   -1.42   -0.43    0.11   -0.46   -0.12    0.00    0.00      -2.31   -1.09   -0.28
#  19   -0.74   -0.25    0.02   -0.50   -0.07    0.00    0.00      -1.54   -2.06   -0.28

@<TRIPOS>MOLECULE
       AVX17679_0       100
   19    20     0     0     0



@<TRIPOS>ATOM
      1 O1          3.2832   -25.8237     1.4764 O.co2      1          -0.6817
      2 C1          3.2602   -24.6051     1.4451 C.2        1           0.5039
      3 O2          2.2908   -24.0254     0.9861 O.co2      1          -0.6890
      4 C2          4.4272   -23.8154     1.9792 C.3        1          -0.1314
      5 C3          5.6719   -24.1758     1.2098 C.2        1           0.1871
      6 N1          6.5059   -25.1262     1.5000 N.2        1          -0.2984
      7 O3          7.5481   -25.1550     0.5454 O.3        1          -0.1093
      8 C4          7.3448   -24.1831    -0.3666 C.ar       1           0.0811
      9 C5          8.0422   -23.7709    -1.4959 C.ar       1          -0.1335
     10 C6          7.5688   -22.7163    -2.2460 C.ar       1          -0.0710
     11 C7          6.4004   -22.0605    -1.8846 C.ar       1          -0.1600
     12 C8          5.7000   -22.4502    -0.7781 C.ar       1          -0.0310
     13 C9          6.1593   -23.5210    -0.0075 C.ar       1          -0.1770
     14 H1          4.2267   -22.7499     1.8675 H          1           0.0919
     15 H2          4.5717   -24.0492     3.0340 H          1           0.0902
     16 H3          8.9525   -24.2753    -1.7844 H          1           0.1330
     17 H4          8.1122   -22.3971    -3.1231 H          1           0.1337
     18 H5          6.0421   -21.2354    -2.4823 H          1           0.1297
     19 H6          4.7915   -21.9352    -0.5029 H          1           0.1317
@<TRIPOS>BOND
     1    1    2 1
     2    2    3 2
     3    2    4 1
     4    4    5 1
     5    4   14 1
     6    4   15 1
     7    5   13 1
     8    5    6 2
     9    6    7 1
    10    7    8 1
    11    8   13 ar
    12    8    9 ar
    13    9   10 ar
    14    9   16 1
    15   10   11 ar
    16   10   17 1
    17   11   12 ar
    18   11   18 1
    19   12   13 ar
    20   12   19 1
