AVX101121_0, 3
##########                 Name:          AVX101121_0
##########          Protonation:                   85
##########               SMILES:   C[NH+](Cc1cccc(c1C(=O)[O-])OC)Cc2cc3ccccc3cc2C(=O)NCc4ccc(cc4)OC
##########            Long Name:   hoxyphenyl)methylcarbamoyl]-2-naphthyl]methyl-methyl-ammonio]methyl]benzoate
##########          FlexRecCode: 1
##########               Number:                  417
##########   Ligand Source File: /raid1/people/rgc/Examples/sampl4/screening/ligands/build_1//sampl4-hivint-00000
##########           GlobalRank: 6
##########                 Rank:                    1
##########               Setnum:                  140
##########             Matchnum:                 4633
##########                Cloud:                    1
##########        Electrostatic:           -13.353321
##########        Van der Waals:           -33.375835
##########  Ligand Polar Desolv:             8.457285
########## Ligand Apolar Desolv:            -4.897261
##########      Internal Energy:             0.000000
##########      Receptor Energy: 0.0
########## Receptor Desolvation:             0.000000
########## Receptor Hydrophobic:             0.000000
##########         Total Energy: -43.17
##########        Ligand Charge:             0.000000
##########            Arbitrary:    +999.9990
##########     heavy atom count:   37
##########           pose count:    1
##########        Ligand Energy:             0.000000
# num electro vdwattr vdwrepu polsolv apolsol rdesolv rhydroe totalscore fullpol fullapo
#   1    0.04   -0.50    0.06    0.01    0.01    0.00    0.00      -0.39    0.03    0.03
#   2   -0.42   -0.45    0.02    0.08    0.20    0.00    0.00      -0.57    0.38    0.93
#   3    0.24   -0.56    0.05   -0.01   -0.06    0.00    0.00      -0.34   -0.05   -0.31
#   4   -0.35   -0.34    0.01   -0.06   -0.05    0.00    0.00      -0.79   -0.49   -0.42
#   5   -0.22   -0.32    0.01   -0.02   -0.05    0.00    0.00      -0.61   -0.20   -0.45
#   6   -1.03   -0.65    0.07   -0.09   -0.08    0.00    0.00      -1.77   -0.44   -0.37
#   7    1.56   -0.80    0.42    0.14   -0.10    0.00    0.00       1.22    0.61   -0.44
#   8   -7.06   -0.89    0.12   -0.84    0.65    0.00    0.00      -8.02   -3.03    2.32
#   9    6.20   -1.54    0.39    0.55   -0.25    0.00    0.00       5.35    1.44   -0.65
#  10   -7.16   -3.75    4.01   -0.12    0.14    0.00    0.00      -6.87   -0.26    0.32
#  11   -1.00   -1.43    0.18   -0.19   -0.17    0.00    0.00      -2.61   -0.46   -0.41
#  12    0.12   -1.43    0.18   -0.07   -0.15    0.00    0.00      -1.36   -0.19   -0.39
#  13   -0.51   -0.78    0.09    0.11   -0.09    0.00    0.00      -1.19    0.32   -0.26
#  14    3.81   -0.53    0.02   -0.47    0.04    0.00    0.00       2.87   -1.90    0.16
#  15   -1.73   -0.01    0.00    0.01    0.04    0.00    0.00      -1.69    0.11    0.32
#  16    1.08   -0.70    0.09   -0.27   -0.14    0.00    0.00       0.05   -0.81   -0.42
#  17   -0.63   -0.35    0.01    0.04   -0.06    0.00    0.00      -0.99    0.20   -0.29
#  18    1.10   -0.46    0.02    0.00   -0.06    0.00    0.00       0.59   -0.02   -0.30
#  19    2.76   -0.97    0.18   -0.18   -0.10    0.00    0.00       1.70   -0.73   -0.40
#  20    1.33   -1.35    0.80   -0.06   -0.11    0.00    0.00       0.60   -0.25   -0.47
#  21    2.35   -0.73    0.23    0.07   -0.07    0.00    0.00       1.86    0.43   -0.42
#  22   -1.24   -0.40    0.02   -0.14   -0.04    0.00    0.00      -1.80   -0.99   -0.31
#  23    0.72   -0.42    0.02    0.92    0.07    0.00    0.00       1.31    4.84    0.36
#  24   -0.03   -0.81    0.15   -0.02    0.01    0.00    0.00      -0.71   -0.07    0.03
#  25    1.22   -0.36    0.01    0.32   -0.05    0.00    0.00       1.15    2.42   -0.40
#  26   -0.99   -0.45    0.04   -1.32   -0.02    0.00    0.00      -2.75   -9.07   -0.15
#  27    0.38   -1.33    1.00    2.62   -0.07    0.00    0.00       2.60   11.82   -0.30
#  28   -1.00   -0.27    0.01    2.51   -0.07    0.00    0.00       1.17   19.83   -0.59
#  29    0.49   -2.09    0.48   -0.18   -0.16    0.00    0.00      -1.45   -0.38   -0.33
#  30   -0.06   -2.67    0.86   -0.04   -0.21    0.00    0.00      -2.12   -0.08   -0.40
#  31    0.01   -3.37    1.35   -0.15   -0.29    0.00    0.00      -2.45   -0.23   -0.46
#  32   -0.15   -3.62    1.21   -0.16   -0.32    0.00    0.00      -3.05   -0.24   -0.47
#  33   -0.67   -3.86    1.50   -0.29   -0.33    0.00    0.00      -3.66   -0.41   -0.47
#  34   -1.15   -2.54    0.38   -0.24   -0.30    0.00    0.00      -3.85   -0.37   -0.46
#  35   -0.61   -2.17    0.39   -0.13   -0.22    0.00    0.00      -2.74   -0.24   -0.40
#  36   -0.55   -1.89    0.27   -0.06   -0.21    0.00    0.00      -2.45   -0.12   -0.43
#  37   -0.36   -1.35    0.51   -0.03   -0.12    0.00    0.00      -1.34   -0.10   -0.45
#  38   -0.34   -1.18    0.41    0.01   -0.11    0.00    0.00      -1.20    0.05   -0.46
#  39    0.11   -0.13    0.01    0.09   -0.05    0.00    0.00       0.02    0.52   -0.28
#  40    0.10   -0.39    0.20    0.10   -0.08    0.00    0.00      -0.07    0.35   -0.26
#  41    0.08   -0.07    0.00    0.02   -0.02    0.00    0.00       0.02    0.29   -0.26
#  42    0.16   -0.05    0.00    0.03   -0.01    0.00    0.00       0.13    0.67   -0.22
#  43    0.37   -0.04    0.00    0.04   -0.01    0.00    0.00       0.36    1.00   -0.28
#  44    0.36   -0.15    0.04    0.01   -0.03    0.00    0.00       0.24    0.13   -0.28
#  45    1.49   -1.03    2.81    0.09   -0.07    0.00    0.00       3.27    0.34   -0.28
#  46    3.30   -0.01    0.00    0.33    0.05    0.00    0.00       3.68    2.66    0.44
#  47   -0.92   -0.32    0.06   -0.02   -0.07    0.00    0.00      -1.27   -0.06   -0.26
#  48   -2.91   -0.33    0.07    0.35   -0.05    0.00    0.00      -2.87    1.45   -0.22
#  49   -2.09   -0.19    0.01    0.29   -0.05    0.00    0.00      -2.03    1.32   -0.22
#  50   -3.09   -0.23    0.02    0.68   -0.07    0.00    0.00      -2.69    2.86   -0.28
#  51   -1.35   -0.37    0.14    0.41   -0.05    0.00    0.00      -1.21    1.39   -0.18
#  52   -0.93   -0.12    0.01   -0.03   -0.02    0.00    0.00      -1.09   -0.32   -0.20
#  53   -2.28   -0.13    0.00    0.27   -0.03    0.00    0.00      -2.17    2.23   -0.27
#  54   -2.53   -0.32    0.10    0.74   -0.08    0.00    0.00      -2.08    2.62   -0.28
#  55   -2.06   -0.35    0.17    0.38   -0.07    0.00    0.00      -1.94    1.52   -0.28
#  56   -0.96   -0.11    0.02    0.00   -0.02    0.00    0.00      -1.07    0.02   -0.22
#  57    0.12   -0.65    0.68   -0.08   -0.08    0.00    0.00      -0.02   -0.25   -0.26
#  58   -0.18   -0.22    0.02   -0.05   -0.06    0.00    0.00      -0.50   -0.22   -0.26
#  59   -0.29   -0.23    0.02   -0.15   -0.07    0.00    0.00      -0.71   -0.56   -0.28
#  60   -1.44   -0.38    0.06    0.22   -0.07    0.00    0.00      -1.60    0.58   -0.17
#  61   -0.67   -0.76    0.51    0.20   -0.16    0.00    0.00      -0.88    0.36   -0.28
#  62   -0.46   -0.79    0.24    0.40   -0.20    0.00    0.00      -0.80    0.56   -0.28
#  63    0.33   -1.67    3.44    0.50   -0.17    0.00    0.00       2.42    0.80   -0.28
#  64    2.05   -0.53    0.07    0.71   -0.17    0.00    0.00       2.11    1.14   -0.28
#  65    2.77   -0.65    0.38    0.60   -0.09    0.00    0.00       3.00    1.43   -0.22
#  66    1.13   -0.41    0.12    0.12   -0.09    0.00    0.00       0.87    0.37   -0.28
#  67    0.31   -0.27    0.07   -0.02   -0.06    0.00    0.00       0.02   -0.09   -0.28

@<TRIPOS>MOLECULE
      AVX101121_0        85
   67    70     0     0     0



@<TRIPOS>ATOM
      1 C1          2.3171   -30.9654     3.6643 C.3        1           0.0255
      2 O1          1.5186   -30.3927     2.6268 O.3        1          -0.3155
      3 C2          1.6230   -29.0509     2.4373 C.ar       1           0.1397
      4 C3          0.8721   -28.4280     1.4509 C.ar       1          -0.2113
      5 C4          0.9797   -27.0640     1.2605 C.ar       1          -0.0578
      6 C5          1.8351   -26.3198     2.0517 C.ar       1          -0.1556
      7 C6          1.9509   -24.8320     1.8416 C.3        1           0.1666
      8 N1          3.0086   -24.5575     0.8658 N.am       1          -0.7168
      9 C7          4.0708   -23.8057     1.2168 C.2        1           0.5598
     10 O2          4.1511   -23.3554     2.3431 O.2        1          -0.5353
     11 C8          5.1377   -23.5289     0.2324 C.ar       1          -0.1219
     12 C9          5.0516   -22.3898    -0.5882 C.ar       1          -0.0580
     13 C10         3.8707   -21.4634    -0.4533 C.3        1           0.0509
     14 N2          2.8004   -21.8992    -1.3602 N.4        1          -0.3735
     15 H1          2.7443   -22.9066    -1.3548 H          1           0.4289
     16 C11         3.0922   -21.4322    -2.7221 C.3        1          -0.0646
     17 C12         1.5199   -21.3351    -0.9130 C.3        1           0.0513
     18 C13         0.4218   -21.7822    -1.8434 C.ar       1          -0.0851
     19 C14        -0.5086   -20.8742    -2.2990 C.ar       1          -0.1566
     20 C15        -1.5203   -21.2790    -3.1550 C.ar       1          -0.0787
     21 C16        -1.6076   -22.5959    -3.5609 C.ar       1          -0.2078
     22 C17        -0.6806   -23.5248    -3.1127 C.ar       1           0.1659
     23 O3         -0.7654   -24.8185    -3.5102 O.3        1          -0.2655
     24 C18        -0.0676   -25.1772    -4.7045 C.3        1           0.0183
     25 C19         0.3492   -23.1182    -2.2502 C.ar       1          -0.1586
     26 C20         1.3431   -24.0928    -1.7725 C.2        1           0.5201
     27 O4          2.3726   -24.2776    -2.4073 O.co2      1          -0.7051
     28 O5          1.1399   -24.7181    -0.7409 O.co2      1          -0.6310
     29 C21         6.0187   -22.1141    -1.4996 C.ar       1          -0.1235
     30 C22         7.1254   -22.9727    -1.6334 C.ar       1          -0.0197
     31 C23         8.1388   -22.7081    -2.5697 C.ar       1          -0.1129
     32 C24         9.1977   -23.5570    -2.6761 C.ar       1          -0.0938
     33 C25         9.2943   -24.6893    -1.8693 C.ar       1          -0.1091
     34 C26         8.3324   -24.9785    -0.9511 C.ar       1          -0.0977
     35 C27         7.2236   -24.1244    -0.8120 C.ar       1          -0.0586
     36 C28         6.2173   -24.3900     0.1289 C.ar       1          -0.0402
     37 C29         2.5843   -26.9382     3.0357 C.ar       1          -0.0575
     38 C30         2.4763   -28.3012     3.2335 C.ar       1          -0.1531
     39 H2          2.1389   -32.0399     3.7087 H          1           0.1032
     40 H3          3.3709   -30.7802     3.4559 H          1           0.0570
     41 H4          2.0507   -30.5131     4.6195 H          1           0.0576
     42 H5          0.2044   -29.0090     0.8321 H          1           0.1311
     43 H6          0.3954   -26.5786     0.4928 H          1           0.1272
     44 H7          1.0032   -24.4427     1.4694 H          1           0.0825
     45 H8          2.1955   -24.3493     2.7879 H          1           0.0802
     46 H9          2.9444   -24.9167    -0.0330 H          1           0.4022
     47 H10         3.5076   -21.4849     0.5742 H          1           0.1518
     48 H11         4.1740   -20.4485    -0.7104 H          1           0.1494
     49 H12         2.2979   -21.7556    -3.3950 H          1           0.1196
     50 H13         3.1527   -20.3440    -2.7280 H          1           0.1183
     51 H14         4.0424   -21.8508    -3.0539 H          1           0.1183
     52 H15         1.3033   -21.6816     0.0975 H          1           0.1687
     53 H16         1.5803   -20.2468    -0.9188 H          1           0.1140
     54 H17        -0.4494   -19.8420    -1.9872 H          1           0.1245
     55 H18        -2.2454   -20.5600    -3.5066 H          1           0.1272
     56 H19        -2.3992   -22.9030    -4.2282 H          1           0.1308
     57 H20        -0.2179   -26.2373    -4.9087 H          1           0.0525
     58 H21        -0.4492   -24.5888    -5.5389 H          1           0.0515
     59 H22         0.9967   -24.9792    -4.5770 H          1           0.1021
     60 H23         5.9387   -21.2356    -2.1226 H          1           0.1294
     61 H24         8.0779   -21.8351    -3.2026 H          1           0.1341
     62 H25         9.9747   -23.3500    -3.3971 H          1           0.1314
     63 H26        10.1446   -25.3468    -1.9745 H          1           0.1311
     64 H27         8.4198   -25.8596    -0.3327 H          1           0.1344
     65 H28         6.2818   -25.2612     0.7639 H          1           0.1393
     66 H29         3.2516   -26.3546     3.6526 H          1           0.1334
     67 H30         3.0590   -28.7830     4.0047 H          1           0.1348
@<TRIPOS>BOND
     1    1    2 1
     2    1   39 1
     3    1   40 1
     4    1   41 1
     5    2    3 1
     6    3   38 ar
     7    3    4 ar
     8    4    5 ar
     9    4   42 1
    10    5    6 ar
    11    5   43 1
    12    6    7 1
    13    6   37 ar
    14    7    8 1
    15    7   44 1
    16    7   45 1
    17    8    9 am
    18    8   46 1
    19    9   10 2
    20    9   11 1
    21   11   36 ar
    22   11   12 ar
    23   12   13 1
    24   12   29 ar
    25   13   14 1
    26   13   47 1
    27   13   48 1
    28   14   15 1
    29   14   16 1
    30   14   17 1
    31   16   49 1
    32   16   50 1
    33   16   51 1
    34   17   18 1
    35   17   52 1
    36   17   53 1
    37   18   25 ar
    38   18   19 ar
    39   19   20 ar
    40   19   54 1
    41   20   21 ar
    42   20   55 1
    43   21   22 ar
    44   21   56 1
    45   22   23 1
    46   22   25 ar
    47   23   24 1
    48   24   57 1
    49   24   58 1
    50   24   59 1
    51   25   26 1
    52   26   27 1
    53   26   28 2
    54   29   30 ar
    55   29   60 1
    56   30   35 ar
    57   30   31 ar
    58   31   32 ar
    59   31   61 1
    60   32   33 ar
    61   32   62 1
    62   33   34 ar
    63   33   63 1
    64   34   35 ar
    65   34   64 1
    66   35   36 ar
    67   36   65 1
    68   37   38 ar
    69   37   66 1
    70   38   67 1
