AVX17631_0, 3
##########                 Name:           AVX17631_0
##########          Protonation:                  100
##########               SMILES:   c1ccc2c(c1)c(no2)N
##########            Long Name:   1,2-benzoxazol-3-amine
##########          FlexRecCode: 1
##########               Number:                  499
##########   Ligand Source File: /raid1/people/rgc/Examples/sampl4/screening/ligands/build_1//sampl4-hivint-00000
##########           GlobalRank: 83
##########                 Rank:                    1
##########               Setnum:                    1
##########             Matchnum:                 9152
##########                Cloud:                    1
##########        Electrostatic:            -7.546958
##########        Van der Waals:           -20.988941
##########  Ligand Polar Desolv:             4.322004
########## Ligand Apolar Desolv:            -2.269936
##########      Internal Energy:             0.000000
##########      Receptor Energy: 0.0
########## Receptor Desolvation:             0.000000
########## Receptor Hydrophobic:             0.000000
##########         Total Energy: -26.48
##########        Ligand Charge:             0.000000
##########            Arbitrary:    +999.9990
##########     heavy atom count:   10
##########           pose count:    1
##########        Ligand Energy:             0.000000
# num electro vdwattr vdwrepu polsolv apolsol rdesolv rhydroe totalscore fullpol fullapo
#   1   -0.85   -1.39    0.14   -0.57    0.36    0.00    0.00      -2.31   -1.45    0.90
#   2    3.91   -1.89    0.35   -0.66   -1.11    0.00    0.00       0.61   -1.43   -2.39
#   3   -6.50   -3.00    1.41    1.81    0.63    0.00    0.00      -5.65    3.67    1.28
#   4   -1.87   -4.66    3.04    0.81   -0.04    0.00    0.00      -2.72    1.45   -0.08
#   5    1.65   -3.40    1.06   -0.15   -0.22    0.00    0.00      -1.07   -0.24   -0.35
#   6   -2.00   -3.90    1.23    0.19   -0.33    0.00    0.00      -4.82    0.27   -0.48
#   7   -0.53   -3.66    0.91   -0.08   -0.33    0.00    0.00      -3.68   -0.11   -0.47
#   8   -1.15   -3.50    1.07   -0.36   -0.33    0.00    0.00      -4.26   -0.51   -0.47
#   9   -0.31   -2.64    0.66   -0.04   -0.28    0.00    0.00      -2.61   -0.07   -0.47
#  10   -2.49   -2.17    0.38    0.39   -0.24    0.00    0.00      -4.14    0.71   -0.44
#  11   -1.34   -0.02    0.00    0.66    0.16    0.00    0.00      -0.54    2.52    0.60
#  12   -0.26   -0.02    0.00    0.31    0.15    0.00    0.00       0.17    1.26    0.60
#  13    2.56   -1.35    1.29   -0.04   -0.19    0.00    0.00       2.27   -0.06   -0.28
#  14    0.80   -1.38    1.11    0.80   -0.19    0.00    0.00       1.14    1.16   -0.28
#  15    0.35   -1.09    0.80    0.81   -0.17    0.00    0.00       0.68    1.30   -0.28
#  16    0.48   -0.55    0.19    0.46   -0.12    0.00    0.00       0.45    1.05   -0.28

@<TRIPOS>MOLECULE
       AVX17631_0       100
   16    17     0     0     0



@<TRIPOS>ATOM
      1 N1          5.0832   -22.7049    -0.3086 N.pl3      1          -0.8162
      2 C1          5.9187   -23.6648     0.2448 C.2        1           0.3772
      3 N2          5.7655   -24.2508     1.3999 N.2        1          -0.3595
      4 O1          6.8202   -25.1676     1.6107 O.3        1          -0.0920
      5 C2          7.6530   -25.1471     0.5500 C.ar       1           0.1013
      6 C3          8.8213   -25.8339     0.2414 C.ar       1          -0.1316
      7 C4          9.4639   -25.5899    -0.9532 C.ar       1          -0.0556
      8 C5          8.9551   -24.6635    -1.8519 C.ar       1          -0.1547
      9 C6          7.8075   -23.9780    -1.5659 C.ar       1          -0.0383
     10 C7          7.1387   -24.2158    -0.3648 C.ar       1          -0.2113
     11 H1          5.2829   -22.3335    -1.1821 H          1           0.4171
     12 H2          4.2974   -22.4081     0.1765 H          1           0.4155
     13 H3          9.2246   -26.5561     0.9357 H          1           0.1411
     14 H4         10.3717   -26.1242    -1.1915 H          1           0.1412
     15 H5          9.4695   -24.4823    -2.7841 H          1           0.1355
     16 H6          7.4172   -23.2577    -2.2696 H          1           0.1303
@<TRIPOS>BOND
     1    1    2 1
     2    1   11 1
     3    1   12 1
     4    2   10 1
     5    2    3 2
     6    3    4 1
     7    4    5 1
     8    5   10 ar
     9    5    6 ar
    10    6    7 ar
    11    6   13 1
    12    7    8 ar
    13    7   14 1
    14    8    9 ar
    15    8   15 1
    16    9   10 ar
    17    9   16 1
