AVX17558_3, 3
##########                 Name:           AVX17558_0
##########          Protonation:                  100
##########               SMILES:   c1ccc2c(c1)C[C@@H]([C@H]2Cc3ccc4c(c3C(=O)[O-])OCO4)NC(=O)CCC[NH3+]
##########            Long Name:   -(4-azaniumylbutanoylamino)indan-1-yl]methyl]-1,3-benzodioxole-4-carboxylate
##########          FlexRecCode: 1
##########               Number:                   54
##########   Ligand Source File: /raid1/people/rgc/Examples/sampl4/screening/ligands/build_1//sampl4-hivint-00000
##########           GlobalRank: 66
##########                 Rank:                    1
##########               Setnum:                    2
##########             Matchnum:                 7097
##########                Cloud:                    1
##########        Electrostatic:           -11.091307
##########        Van der Waals:           -28.240084
##########  Ligand Polar Desolv:            14.841502
########## Ligand Apolar Desolv:            -3.712255
##########      Internal Energy:             0.000000
##########      Receptor Energy: 0.0
########## Receptor Desolvation:             0.000000
########## Receptor Hydrophobic:             0.000000
##########         Total Energy: -28.2
##########        Ligand Charge:             0.000000
##########            Arbitrary:    +999.9990
##########     heavy atom count:   29
##########           pose count:    1
##########        Ligand Energy:             0.000000
# num electro vdwattr vdwrepu polsolv apolsol rdesolv rhydroe totalscore fullpol fullapo
#   1    4.93   -0.32    0.01   -2.66    0.13    0.00    0.00       2.08  -18.21    0.86
#   2   -1.20    0.00    0.00    0.94    0.04    0.00    0.00      -0.23   13.39    0.58
#   3   -4.78   -0.01    0.00    1.22    0.05    0.00    0.00      -3.52   14.17    0.58
#   4   -4.01   -0.01    0.00    1.27    0.05    0.00    0.00      -2.69   15.56    0.60
#   5    0.07   -0.20    0.00    0.11   -0.06    0.00    0.00      -0.06    0.94   -0.48
#   6    0.62   -0.31    0.03   -0.30   -0.03    0.00    0.00       0.02   -2.08   -0.20
#   7    1.55   -0.48    0.05   -0.26   -0.05    0.00    0.00       0.80   -1.13   -0.24
#   8   -5.30   -0.64    0.03   -0.17   -0.16    0.00    0.00      -6.24   -0.68   -0.66
#   9    8.11   -0.62    0.02    0.91    0.10    0.00    0.00       8.53    3.29    0.37
#  10    1.99   -0.85    0.05    0.97    0.62    0.00    0.00       2.77    3.20    2.05
#  11    0.11   -0.87    0.22   -0.42   -0.10    0.00    0.00      -1.06   -1.21   -0.30
#  12    0.49   -1.19    0.26    0.08   -0.12    0.00    0.00      -0.49    0.18   -0.27
#  13   -0.06   -2.73    1.00    0.11   -0.22    0.00    0.00      -1.89    0.22   -0.43
#  14    0.13   -3.61    1.92   -0.04   -0.30    0.00    0.00      -1.89   -0.06   -0.47
#  15   -0.10   -3.53    1.19   -0.06   -0.32    0.00    0.00      -2.82   -0.09   -0.47
#  16   -0.68   -3.35    0.97    0.19   -0.33    0.00    0.00      -3.19    0.28   -0.47
#  17   -0.95   -2.51    0.56    0.53   -0.26    0.00    0.00      -2.63    0.82   -0.40
#  18   -0.62   -2.20    0.46    0.38   -0.18    0.00    0.00      -2.16    0.74   -0.35
#  19   -0.51   -0.99    0.10    0.23   -0.07    0.00    0.00      -1.24    0.52   -0.15
#  20   -0.96   -1.58    0.94    0.34   -0.08    0.00    0.00      -1.34    0.80   -0.19
#  21   -1.05   -2.35    2.32    0.33   -0.12    0.00    0.00      -0.87    0.87   -0.32
#  22   -1.85   -3.05    1.26    0.28   -0.18    0.00    0.00      -3.55    0.60   -0.38
#  23   -1.54   -3.73    2.49    0.26   -0.21    0.00    0.00      -2.74    0.57   -0.47
#  24    0.24   -2.14    1.22   -0.08   -0.11    0.00    0.00      -0.87   -0.23   -0.33
#  25   -1.31   -1.89    1.33    0.94    0.14    0.00    0.00      -0.80    3.53    0.52
#  26    0.33   -0.29    0.02   -0.31    0.00    0.00    0.00      -0.24   -2.10    0.02
#  27   -1.07   -0.30    0.01    1.03    0.07    0.00    0.00      -0.26    7.42    0.48
#  28    0.39   -0.83    0.12    0.08   -0.08    0.00    0.00      -0.32    0.32   -0.33
#  29   -1.06   -1.24    0.59    1.10   -0.11    0.00    0.00      -0.72    3.96   -0.40
#  30    5.30   -0.90    0.16   -3.79   -0.03    0.00    0.00       0.75  -15.80   -0.11
#  31   -3.48   -0.57    0.05    5.56   -0.09    0.00    0.00       1.47   26.04   -0.42
#  32   -8.26   -1.20    0.29    6.98   -0.12    0.00    0.00      -2.31   23.07   -0.39
#  33   -1.69   -0.09    0.00    0.48   -0.03    0.00    0.00      -1.33    4.38   -0.28
#  34   -0.57   -0.03    0.00    0.11   -0.01    0.00    0.00      -0.51    3.29   -0.28
#  35   -0.34   -0.08    0.01    0.04   -0.02    0.00    0.00      -0.40    0.52   -0.28
#  36    0.03   -0.12    0.03    0.12   -0.03    0.00    0.00       0.03    1.32   -0.28
#  37   -1.94   -0.13    0.00    0.27   -0.04    0.00    0.00      -1.84    2.06   -0.28
#  38   -0.80   -0.32    0.12    0.21   -0.07    0.00    0.00      -0.86    0.91   -0.28
#  39    0.65   -0.02    0.00   -0.32    0.14    0.00    0.00       0.46   -1.33    0.58
#  40    0.31   -0.57    0.94   -0.17   -0.06    0.00    0.00       0.46   -0.71   -0.25
#  41   -0.76   -0.50    0.27   -0.07   -0.09    0.00    0.00      -1.15   -0.22   -0.28
#  42   -0.87   -0.40    0.08   -0.02   -0.09    0.00    0.00      -1.29   -0.06   -0.28
#  43   -0.54   -0.86    0.68    0.30   -0.17    0.00    0.00      -0.59    0.51   -0.28
#  44   -0.40   -0.74    0.18    0.40   -0.20    0.00    0.00      -0.77    0.55   -0.28
#  45    0.35   -0.99    0.74   -0.06   -0.16    0.00    0.00      -0.13   -0.11   -0.28
#  46    1.72   -0.45    0.04   -0.41   -0.16    0.00    0.00       0.74   -0.71   -0.27
#  47    1.07   -0.46    0.17   -0.15   -0.08    0.00    0.00       0.55   -0.45   -0.23
#  48    1.50   -0.46    0.16   -0.08   -0.08    0.00    0.00       1.04   -0.25   -0.25
#  49    1.56   -1.05    1.83   -0.50   -0.12    0.00    0.00       1.72   -1.18   -0.28
#  50    2.78   -1.10    1.32   -0.48   -0.14    0.00    0.00       2.38   -0.93   -0.28
#  51    1.11   -1.38    1.85   -0.47   -0.16    0.00    0.00       0.95   -0.84   -0.28
#  52    0.19   -0.05    0.00   -0.05   -0.01    0.00    0.00       0.06   -1.19   -0.28
#  53    0.11   -0.05    0.00   -0.04   -0.01    0.00    0.00       0.00   -0.98   -0.28

@<TRIPOS>MOLECULE
       AVX17558_0       100
   53    56     0     0     0



@<TRIPOS>ATOM
      1 N1          0.8628   -23.0056    -2.1183 N.4        1          -0.6368
      2 H1          1.1725   -23.8405    -1.6439 H          1           0.4370
      3 H2          1.6452   -22.3815    -2.2461 H          1           0.4350
      4 H3          0.4794   -23.2528    -3.0183 H          1           0.4366
      5 C1         -0.1692   -22.3388    -1.3130 C.3        1          -0.0097
      6 C2          0.4122   -21.9639     0.0517 C.3        1          -0.1369
      7 C3          1.5986   -21.0174    -0.1420 C.3        1          -0.1420
      8 C4          2.6573   -21.7013    -0.9681 C.2        1           0.5142
      9 O1          2.6413   -21.6019    -2.1768 O.2        1          -0.5461
     10 N2          3.6215   -22.4233    -0.3640 N.am       1          -0.7048
     11 C5          4.6506   -23.0882    -1.1671 C.3        1           0.1492
     12 C6          5.5176   -22.0663    -1.9103 C.3        1          -0.0863
     13 C7          6.8650   -22.7317    -2.0410 C.ar       1          -0.1007
     14 C8          7.9137   -22.5002    -2.9146 C.ar       1          -0.1114
     15 C9          9.0658   -23.2578    -2.8312 C.ar       1          -0.1219
     16 C10         9.1720   -24.2496    -1.8740 C.ar       1          -0.1197
     17 C11         8.1261   -24.4818    -1.0021 C.ar       1          -0.0889
     18 C12         6.9711   -23.7228    -1.0844 C.ar       1          -0.0792
     19 C13         5.6992   -23.7610    -0.2747 C.3        1          -0.0584
     20 C14         5.2986   -25.2077     0.0210 C.3        1          -0.0567
     21 C15         4.3112   -25.2329     1.1592 C.ar       1          -0.0622
     22 C16         4.6644   -24.7226     2.3887 C.ar       1          -0.1063
     23 C17         3.7630   -24.7417     3.4412 C.ar       1          -0.1159
     24 C18         2.4977   -25.2732     3.2681 C.ar       1           0.0209
     25 O2          1.4385   -25.4148     4.1143 O.3        1          -0.3152
     26 C19         0.5876   -26.4163     3.5368 C.3        1           0.2110
     27 O3          0.8468   -26.2441     2.1354 O.3        1          -0.2995
     28 C20         2.1245   -25.7931     2.0304 C.ar       1           0.0454
     29 C21         3.0329   -25.7697     0.9654 C.ar       1          -0.0873
     30 C22         2.6483   -26.3109    -0.3480 C.2        1           0.5375
     31 O4          2.1313   -25.5812    -1.1827 O.co2      1          -0.6778
     32 O5          2.8457   -27.4907    -0.6051 O.co2      1          -0.6830
     33 H4         -0.5036   -21.4369    -1.8257 H          1           0.1337
     34 H5         -1.0145   -23.0130    -1.1751 H          1           0.1360
     35 H6         -0.3536   -21.4691     0.6492 H          1           0.0978
     36 H7          0.7467   -22.8656     0.5644 H          1           0.0946
     37 H8          1.2640   -20.1155    -0.6545 H          1           0.1025
     38 H9          2.0127   -20.7503     0.8303 H          1           0.1078
     39 H10         3.6342   -22.5027     0.6027 H          1           0.4047
     40 H11         4.2053   -23.8038    -1.8583 H          1           0.1097
     41 H12         5.0996   -21.8581    -2.8952 H          1           0.0906
     42 H13         5.6026   -21.1471    -1.3306 H          1           0.0733
     43 H14         7.8311   -21.7256    -3.6626 H          1           0.1144
     44 H15         9.8831   -23.0751    -3.5132 H          1           0.1198
     45 H16        10.0725   -24.8423    -1.8077 H          1           0.1213
     46 H17         8.2094   -25.2569    -0.2547 H          1           0.1206
     47 H18         5.8227   -23.2029     0.6534 H          1           0.1108
     48 H19         4.8419   -25.6469    -0.8659 H          1           0.0902
     49 H20         6.1841   -25.7811     0.2954 H          1           0.0725
     50 H21         5.6500   -24.3056     2.5336 H          1           0.1283
     51 H22         4.0501   -24.3396     4.4016 H          1           0.1271
     52 H23         0.8781   -27.4135     3.8676 H          1           0.1262
     53 H24        -0.4594   -26.2191     3.7672 H          1           0.0780
@<TRIPOS>BOND
     1    1    2 1
     2    1    3 1
     3    1    4 1
     4    1    5 1
     5    5    6 1
     6    5   33 1
     7    5   34 1
     8    6    7 1
     9    6   35 1
    10    6   36 1
    11    7    8 1
    12    7   37 1
    13    7   38 1
    14    8    9 2
    15    8   10 am
    16   10   11 1
    17   10   39 1
    18   11   19 1
    19   11   12 1
    20   11   40 1
    21   12   13 1
    22   12   41 1
    23   12   42 1
    24   13   18 ar
    25   13   14 ar
    26   14   15 ar
    27   14   43 1
    28   15   16 ar
    29   15   44 1
    30   16   17 ar
    31   16   45 1
    32   17   18 ar
    33   17   46 1
    34   18   19 1
    35   19   20 1
    36   19   47 1
    37   20   21 1
    38   20   48 1
    39   20   49 1
    40   21   29 ar
    41   21   22 ar
    42   22   23 ar
    43   22   50 1
    44   23   24 ar
    45   23   51 1
    46   24   28 ar
    47   24   25 1
    48   25   26 1
    49   26   27 1
    50   26   52 1
    51   26   53 1
    52   27   28 1
    53   28   29 ar
    54   29   30 1
    55   30   31 1
    56   30   32 2
