AVX17379_0, 3
##########                 Name:           AVX17379_0
##########          Protonation:                   99
##########               SMILES:   Cc1cc(nn1c2ccccc2C[NH3+])CO
##########            Long Name:   [2-[3-(hydroxymethyl)-5-methyl-pyrazol-1-yl]phenyl]methylammonium
##########          FlexRecCode: 1
##########               Number:                  422
##########   Ligand Source File: /raid1/people/rgc/Examples/sampl4/screening/ligands/build_1//sampl4-hivint-00000
##########           GlobalRank: 5
##########                 Rank:                    1
##########               Setnum:                   45
##########             Matchnum:                 8461
##########                Cloud:                    1
##########        Electrostatic:           -43.679775
##########        Van der Waals:           -15.496976
##########  Ligand Polar Desolv:            15.619274
########## Ligand Apolar Desolv:            -0.352876
##########      Internal Energy:             0.000000
##########      Receptor Energy: 0.0
########## Receptor Desolvation:             0.000000
########## Receptor Hydrophobic:             0.000000
##########         Total Energy: -43.91
##########        Ligand Charge:             1.000000
##########            Arbitrary:    +999.9990
##########     heavy atom count:   16
##########           pose count:    1
##########        Ligand Energy:             0.000000
# num electro vdwattr vdwrepu polsolv apolsol rdesolv rhydroe totalscore fullpol fullapo
#   1    1.45   -0.39    0.02   -0.35   -0.04    0.00    0.00       0.70   -1.64   -0.20
#   2   -0.99   -0.46    0.01    0.28   -0.13    0.00    0.00      -1.29    1.55   -0.74
#   3    1.73   -0.40    0.02   -0.50   -0.07    0.00    0.00       0.78   -3.29   -0.47
#   4   -0.55   -0.78    0.18    0.14   -0.16    0.00    0.00      -1.17    0.71   -0.79
#   5   -0.25   -0.57    0.17    0.38   -0.03    0.00    0.00      -0.30    1.89   -0.16
#   6    2.24   -0.75    0.08   -1.75    0.44    0.00    0.00       0.26   -6.60    1.67
#   7    2.69   -1.33    0.41   -1.11    0.26    0.00    0.00       0.94   -4.15    0.99
#   8    4.60   -0.67    0.03   -1.18    0.14    0.00    0.00       2.92   -4.99    0.57
#   9   -2.78   -0.94    0.07    0.67   -0.20    0.00    0.00      -3.18    2.13   -0.64
#  10    0.72   -1.07    0.09   -0.79   -0.14    0.00    0.00      -1.19   -2.27   -0.39
#  11    0.36   -1.82    0.34   -0.78   -0.21    0.00    0.00      -2.11   -1.76   -0.47
#  12    1.52   -2.61    0.84   -1.20   -0.24    0.00    0.00      -1.68   -2.36   -0.47
#  13    1.80   -2.24    0.68   -0.68   -0.24    0.00    0.00      -0.67   -1.31   -0.46
#  14    4.26   -1.38    0.16   -0.97   -0.15    0.00    0.00       1.91   -2.39   -0.37
#  15   -1.54   -1.56    0.82    0.74   -0.22    0.00    0.00      -1.76    1.62   -0.48
#  16   28.83   -2.35    1.04   -9.79    0.42    0.00    0.00      18.15  -20.49    0.87
#  17  -22.31   -0.08    0.01    8.36    0.28    0.00    0.00     -13.73   17.49    0.59
#  18  -16.67   -0.05    0.00    5.04    0.22    0.00    0.00     -11.46   13.34    0.57
#  19  -21.81   -0.05    0.00    8.44    0.28    0.00    0.00     -13.14   17.17    0.58
#  20   -1.07   -0.10    0.01    0.24   -0.03    0.00    0.00      -0.95    2.59   -0.28
#  21   -2.17   -0.20    0.02    0.19   -0.05    0.00    0.00      -2.20    1.02   -0.28
#  22   -0.64   -0.12    0.01    0.14   -0.02    0.00    0.00      -0.64    1.16   -0.20
#  23   -0.93   -0.05    0.00    0.06   -0.01    0.00    0.00      -0.93    1.12   -0.28
#  24   -0.06   -0.07    0.00    0.14   -0.02    0.00    0.00       0.00    1.91   -0.28
#  25    0.08   -0.44    0.55    0.12   -0.05    0.00    0.00       0.25    0.69   -0.28
#  26   -3.04   -0.01    0.00    1.09    0.22    0.00    0.00      -1.74    6.13    1.24
#  27    0.13   -0.15    0.01    0.19   -0.04    0.00    0.00       0.14    1.19   -0.25
#  28    0.21   -0.35    0.05    0.56   -0.09    0.00    0.00       0.37    1.75   -0.28
#  29   -1.92   -0.72    0.29    1.38   -0.14    0.00    0.00      -1.12    2.68   -0.28
#  30   -4.52   -0.56    0.18    2.97   -0.15    0.00    0.00      -2.09    5.65   -0.28
#  31   -7.43   -1.05    1.85    2.92   -0.12    0.00    0.00      -3.84    6.71   -0.28
#  32   -5.62   -0.47    0.36    0.66   -0.05    0.00    0.00      -5.12    2.60   -0.21

@<TRIPOS>MOLECULE
       AVX17379_0        99
   32    33     0     0     0



@<TRIPOS>ATOM
      1 C1          1.0733   -22.2191    -2.6793 C.3        1          -0.1045
      2 C2          1.0478   -21.6379    -1.2892 C.2        1           0.0838
      3 C3         -0.0340   -21.5491    -0.4811 C.2        1          -0.2251
      4 C4          0.3711   -20.9495     0.7166 C.2        1           0.0977
      5 C5         -0.5136   -20.6562     1.9008 C.3        1           0.1532
      6 O1         -0.2484   -19.3356     2.3781 O.3        1          -0.5653
      7 N1          1.6505   -20.6873     0.6313 N.2        1          -0.2997
      8 N2          2.1029   -21.1166    -0.6231 N.pl3      1          -0.3545
      9 C6          3.4163   -21.0208    -1.1036 C.ar       1           0.1772
     10 C7          4.3129   -22.0593    -0.8895 C.ar       1          -0.1171
     11 C8          5.6060   -21.9622    -1.3645 C.ar       1          -0.0639
     12 C9          6.0083   -20.8322    -2.0529 C.ar       1          -0.1088
     13 C10         5.1178   -19.7966    -2.2677 C.ar       1          -0.0724
     14 C11         3.8216   -19.8901    -1.7995 C.ar       1          -0.1579
     15 C12         2.8499   -18.7632    -2.0390 C.3        1           0.0379
     16 N3          2.9269   -17.8059    -0.9275 N.4        1          -0.6350
     17 H1          2.2763   -17.0515    -1.0878 H          1           0.4394
     18 H2          2.6937   -18.2732    -0.0642 H          1           0.4291
     19 H3          3.8633   -17.4353    -0.8669 H          1           0.4342
     20 H4          0.0738   -22.5603    -2.9488 H          1           0.0831
     21 H5          1.3998   -21.4564    -3.3862 H          1           0.0985
     22 H6          1.7647   -23.0613    -2.7085 H          1           0.0785
     23 H7         -1.0335   -21.8820    -0.7186 H          1           0.1649
     24 H8         -1.5588   -20.7310     1.6008 H          1           0.0718
     25 H9         -0.3106   -21.3766     2.6932 H          1           0.0762
     26 H10        -0.4079   -18.6417     1.7239 H          1           0.3983
     27 H11         3.9994   -22.9418    -0.3517 H          1           0.1429
     28 H12         6.3039   -22.7695    -1.1979 H          1           0.1478
     29 H13         7.0202   -20.7584    -2.4231 H          1           0.1458
     30 H14         5.4350   -18.9152    -2.8053 H          1           0.1447
     31 H15         3.1019   -18.2583    -2.9715 H          1           0.1456
     32 H16         1.8382   -19.1637    -2.1044 H          1           0.1535
@<TRIPOS>BOND
     1    1    2 1
     2    1   20 1
     3    1   21 1
     4    1   22 1
     5    2    8 1
     6    2    3 2
     7    3    4 1
     8    3   23 1
     9    4    5 1
    10    4    7 2
    11    5    6 1
    12    5   24 1
    13    5   25 1
    14    6   26 1
    15    7    8 1
    16    8    9 1
    17    9   14 ar
    18    9   10 ar
    19   10   11 ar
    20   10   27 1
    21   11   12 ar
    22   11   28 1
    23   12   13 ar
    24   12   29 1
    25   13   14 ar
    26   13   30 1
    27   14   15 1
    28   15   16 1
    29   15   31 1
    30   15   32 1
    31   16   17 1
    32   16   18 1
    33   16   19 1
