AVX16980_0, 3
##########                 Name:           AVX16980_0
##########          Protonation:                  100
##########               SMILES:   c1ccc2c(c1)/C(=C/c3cccc(c3)C(=O)[O-])/C(=[NH+]2)[O-]
##########            Long Name:   3-[(Z)-(2-oxidoindol-1-ium-3-ylidene)methyl]benzoate
##########          FlexRecCode: 1
##########               Number:                  329
##########   Ligand Source File: /raid1/people/rgc/Examples/sampl4/screening/ligands/build_1//sampl4-hivint-00000
##########           GlobalRank: 122
##########                 Rank:                    1
##########               Setnum:                    2
##########             Matchnum:                16901
##########                Cloud:                    1
##########        Electrostatic:            -7.146070
##########        Van der Waals:           -15.790343
##########  Ligand Polar Desolv:             5.184406
########## Ligand Apolar Desolv:            -1.965506
##########      Internal Energy:             0.000000
##########      Receptor Energy: 0.0
########## Receptor Desolvation:             0.000000
########## Receptor Hydrophobic:             0.000000
##########         Total Energy: -19.72
##########        Ligand Charge:            -1.000000
##########            Arbitrary:    +999.9990
##########     heavy atom count:   20
##########           pose count:    1
##########        Ligand Energy:             0.000000
# num electro vdwattr vdwrepu polsolv apolsol rdesolv rhydroe totalscore fullpol fullapo
#   1   -0.59   -0.09    0.00    1.33   -0.02    0.00    0.00       0.64   30.79   -0.40
#   2    0.67   -0.11    0.00   -0.89   -0.01    0.00    0.00      -0.33  -18.38   -0.16
#   3   -0.67   -0.07    0.00    1.11   -0.01    0.00    0.00       0.35   30.23   -0.40
#   4   -0.40   -0.26    0.01    0.69   -0.04    0.00    0.00       0.00    6.82   -0.41
#   5   -0.14   -0.38    0.04    0.21   -0.05    0.00    0.00      -0.32    1.66   -0.43
#   6   -1.03   -1.18    0.84    0.34   -0.08    0.00    0.00      -1.11    1.68   -0.38
#   7    0.18   -0.97    0.36   -0.05   -0.11    0.00    0.00      -0.58   -0.20   -0.45
#   8   -0.35   -0.86    0.06    0.57   -0.13    0.00    0.00      -0.70    1.88   -0.42
#   9    5.28   -1.18    0.15   -2.64   -0.23    0.00    0.00       1.38   -7.34   -0.64
#  10   -7.35   -1.51    0.69    3.44    0.12    0.00    0.00      -4.62    9.94    0.34
#  11   -5.40   -1.69    0.34    2.62    0.81    0.00    0.00      -3.32    6.02    1.86
#  12    4.77   -0.03    0.00   -1.04    0.20    0.00    0.00       3.90   -3.00    0.59
#  13   -0.13   -1.75    0.31   -0.35   -0.33    0.00    0.00      -2.25   -0.80   -0.77
#  14    0.85   -2.91    1.13    0.26   -0.25    0.00    0.00      -0.92    0.51   -0.48
#  15    1.44   -3.52    1.66    0.04   -0.26    0.00    0.00      -0.64    0.08   -0.47
#  16    3.42   -2.49    0.89    0.19   -0.24    0.00    0.00       1.76    0.37   -0.47
#  17    1.22   -1.56    0.34    0.16   -0.18    0.00    0.00      -0.03    0.43   -0.48
#  18    0.59   -1.19    0.11    0.55   -0.16    0.00    0.00      -0.10    1.51   -0.44
#  19   -0.69   -2.66    4.52    0.15   -0.10    0.00    0.00       1.21    0.47   -0.32
#  20   -1.29   -1.31    0.39    0.64   -0.13    0.00    0.00      -1.70    2.24   -0.47
#  21   -0.19   -0.45    0.03    0.34   -0.07    0.00    0.00      -0.33    2.20   -0.45
#  22    0.07   -0.04    0.00   -0.12   -0.01    0.00    0.00      -0.11   -2.95   -0.27
#  23   -0.39   -0.16    0.04   -0.28   -0.04    0.00    0.00      -0.83   -2.08   -0.28
#  24   -0.32   -0.60    0.20   -0.15   -0.13    0.00    0.00      -1.01   -0.32   -0.28
#  25   -2.35   -1.06    0.78    0.07   -0.16    0.00    0.00      -2.72    0.13   -0.28
#  26   -4.34   -0.44    0.07   -0.05   -0.13    0.00    0.00      -4.89   -0.12   -0.28
#  27   -2.85   -0.23    0.03   -0.14   -0.06    0.00    0.00      -3.25   -0.72   -0.28
#  28    1.78   -0.69    0.91   -0.94   -0.08    0.00    0.00       0.99   -2.47   -0.22
#  29    0.87   -0.29    0.05   -0.78   -0.08    0.00    0.00      -0.23   -2.83   -0.28
#  30    0.18   -0.05    0.00   -0.11   -0.01    0.00    0.00       0.02   -2.78   -0.27

@<TRIPOS>MOLECULE
       AVX16980_0       100
   30    32     0     0     0



@<TRIPOS>ATOM
      1 O1         -1.6171   -25.9945     0.0265 O.co2      1          -0.6868
      2 C1         -1.0402   -26.3809     1.0332 C.2        1           0.5219
      3 O2         -1.5024   -27.3059     1.6859 O.co2      1          -0.6880
      4 C2          0.2169   -25.7347     1.4569 C.ar       1          -0.1502
      5 C3          0.7420   -24.6763     0.7174 C.ar       1          -0.0452
      6 C4          1.9326   -24.0706     1.1270 C.ar       1          -0.1354
      7 C5          2.4947   -22.9545     0.3558 C.2        1           0.0710
      8 C6          3.7382   -23.0624    -0.1916 C.2        1          -0.1974
      9 C7          4.5831   -24.2683    -0.2653 C.2        1           0.5562
     10 O3          4.2971   -25.3730     0.1582 O.3        1          -0.4794
     11 N1          5.7431   -23.9223    -0.8946 N.pl3      1          -0.6677
     12 H1          6.4746   -24.5340    -1.0730 H          1           0.4138
     13 C8          5.7381   -22.5772    -1.2470 C.ar       1           0.1486
     14 C9          6.6857   -21.7908    -1.8939 C.ar       1          -0.1442
     15 C10         6.4336   -20.4545    -2.1288 C.ar       1          -0.0893
     16 C11         5.2392   -19.8809    -1.7258 C.ar       1          -0.1450
     17 C12         4.2869   -20.6453    -1.0826 C.ar       1          -0.0674
     18 C13         4.5290   -21.9951    -0.8462 C.ar       1          -0.0942
     19 C14         2.5884   -24.5314     2.2766 C.ar       1          -0.0489
     20 C15         2.0606   -25.5800     3.0016 C.ar       1          -0.1511
     21 C16         0.8808   -26.1791     2.6050 C.ar       1          -0.0568
     22 H2          0.2315   -24.3266    -0.1676 H          1           0.1304
     23 H3          1.9227   -22.0482     0.2223 H          1           0.1421
     24 H4          7.6209   -22.2268    -2.2125 H          1           0.1238
     25 H5          7.1745   -19.8504    -2.6313 H          1           0.1272
     26 H6          5.0529   -18.8340    -1.9146 H          1           0.1270
     27 H7          3.3557   -20.1984    -0.7673 H          1           0.1282
     28 H8          3.5089   -24.0651     2.5956 H          1           0.1128
     29 H9          2.5705   -25.9316     3.8863 H          1           0.1164
     30 H10         0.4720   -26.9962     3.1808 H          1           0.1277
@<TRIPOS>BOND
     1    1    2 1
     2    2    3 2
     3    2    4 1
     4    4   21 ar
     5    4    5 ar
     6    5    6 ar
     7    5   22 1
     8    6    7 1
     9    6   19 ar
    10    7    8 2
    11    7   23 1
    12    8   18 1
    13    8    9 1
    14    9   10 1
    15    9   11 2
    16   11   12 1
    17   11   13 1
    18   13   18 ar
    19   13   14 ar
    20   14   15 ar
    21   14   24 1
    22   15   16 ar
    23   15   25 1
    24   16   17 ar
    25   16   26 1
    26   17   18 ar
    27   17   27 1
    28   19   20 ar
    29   19   28 1
    30   20   21 ar
    31   20   29 1
    32   21   30 1
