AVX17542_0, 3
##########                 Name:           AVX17542_0
##########          Protonation:                  100
##########               SMILES:   CC(C)C[C@@H](Cc1ccc2c(c1C(=O)[O-])OCO2)CNC(=O)CCCC[NH3+]
##########            Long Name:   niumylpentanoylamino)methyl]-4-methyl-pentyl]-1,3-benzodioxole-4-carboxylate
##########          FlexRecCode: 1
##########               Number:                  530
##########   Ligand Source File: /raid1/people/rgc/Examples/sampl4/screening/ligands/build_1//sampl4-hivint-00000
##########           GlobalRank: 126
##########                 Rank:                    1
##########               Setnum:                    2
##########             Matchnum:                 2856
##########                Cloud:                    1
##########        Electrostatic:           -18.646381
##########        Van der Waals:           -16.728100
##########  Ligand Polar Desolv:            17.434765
########## Ligand Apolar Desolv:            -1.030885
##########      Internal Energy:             0.000000
##########      Receptor Energy: 0.0
########## Receptor Desolvation:             0.000000
########## Receptor Hydrophobic:             0.000000
##########         Total Energy: -18.97
##########        Ligand Charge:             0.000000
##########            Arbitrary:    +999.9990
##########     heavy atom count:   27
##########           pose count:    1
##########        Ligand Energy:             0.000000
# num electro vdwattr vdwrepu polsolv apolsol rdesolv rhydroe totalscore fullpol fullapo
#   1   -0.16   -0.08    0.00   -0.01   -0.01    0.00    0.00      -0.25   -0.12   -0.18
#   2   -0.12   -0.06    0.00    0.01   -0.01    0.00    0.00      -0.17    0.21   -0.15
#   3   -0.13   -0.03    0.00    0.02    0.00    0.00    0.00      -0.15    0.77   -0.16
#   4   -0.12   -0.06    0.00    0.02   -0.01    0.00    0.00      -0.17    0.56   -0.17
#   5   -0.14   -0.14    0.00    0.06   -0.01    0.00    0.00      -0.22    0.72   -0.08
#   6    0.22   -0.14    0.01   -0.12   -0.03    0.00    0.00      -0.06   -1.50   -0.37
#   7   -0.89   -0.15    0.00    0.22    0.08    0.00    0.00      -0.72    3.98    1.51
#   8    0.25   -0.12    0.00   -0.07   -0.03    0.00    0.00       0.02   -1.41   -0.66
#   9   -0.24   -0.06    0.00    0.15    0.01    0.00    0.00      -0.13    4.72    0.38
#  10   -0.14   -0.22    0.02   -0.10   -0.03    0.00    0.00      -0.46   -0.84   -0.24
#  11    0.01   -0.39    0.06   -0.19   -0.03    0.00    0.00      -0.54   -1.12   -0.19
#  12    0.64   -0.22    0.01   -0.38   -0.03    0.00    0.00       0.01   -2.84   -0.24
#  13    0.09   -0.47    0.05    0.14   -0.11    0.00    0.00      -0.29    0.61   -0.49
#  14    4.01   -0.69    0.10   -5.34    0.23    0.00    0.00      -1.69  -19.64    0.86
#  15   -2.73   -0.01    0.00    1.55    0.06    0.00    0.00      -1.13   15.67    0.58
#  16   -0.89   -0.01    0.00    2.81    0.11    0.00    0.00       2.01   15.30    0.58
#  17   -3.47   -0.02    0.00    3.75    0.14    0.00    0.00       0.40   16.03    0.60
#  18   -0.22   -0.24    0.01    0.12   -0.02    0.00    0.00      -0.35    0.89   -0.17
#  19   -0.31   -0.90    0.25    0.08   -0.07    0.00    0.00      -0.95    0.38   -0.31
#  20   -1.49   -1.48    0.35    0.22   -0.13    0.00    0.00      -2.53    0.67   -0.40
#  21   -1.55   -2.51    0.93    0.16   -0.20    0.00    0.00      -3.17    0.38   -0.47
#  22   -0.03   -1.88    0.52    0.07   -0.14    0.00    0.00      -1.46    0.17   -0.33
#  23   -4.69   -2.04    0.77    1.80    0.25    0.00    0.00      -3.91    3.76    0.52
#  24    1.57   -0.93    0.09   -0.97    0.01    0.00    0.00      -0.23   -2.31    0.02
#  25   -3.39   -1.50    0.46    2.83    0.13    0.00    0.00      -1.47    7.61    0.34
#  26    1.07   -1.55    0.69   -0.10   -0.11    0.00    0.00       0.01   -0.30   -0.32
#  27   -1.47   -1.20    0.55    1.16   -0.10    0.00    0.00      -1.05    4.70   -0.41
#  28    4.65   -0.89    0.12   -3.86   -0.04    0.00    0.00      -0.02  -14.68   -0.16
#  29   -7.72   -1.25    0.21    7.35   -0.10    0.00    0.00      -1.52   20.31   -0.29
#  30   -2.81   -0.52    0.03    5.93   -0.12    0.00    0.00       2.51   27.23   -0.56
#  31    0.06   -0.04    0.00    0.01   -0.01    0.00    0.00       0.02    0.21   -0.28
#  32    0.05   -0.02    0.00    0.00    0.00    0.00    0.00       0.03    0.11   -0.28
#  33    0.06   -0.02    0.00    0.00   -0.01    0.00    0.00       0.04   -0.01   -0.28
#  34    0.09   -0.03    0.00    0.00    0.00    0.00    0.00       0.06   -0.07   -0.17
#  35    0.05   -0.01    0.00    0.00    0.00    0.00    0.00       0.04   -0.11   -0.19
#  36    0.04   -0.01    0.00    0.00    0.00    0.00    0.00       0.03   -0.08   -0.28
#  37    0.05    0.00    0.00    0.00    0.00    0.00    0.00       0.04   -0.16   -0.28
#  38    0.07   -0.02    0.00   -0.01    0.00    0.00    0.00       0.04   -0.27   -0.21
#  39    0.05   -0.01    0.00    0.00    0.00    0.00    0.00       0.03   -0.28   -0.28
#  40    0.16   -0.07    0.00   -0.03   -0.01    0.00    0.00       0.05   -0.43   -0.16
#  41    0.09   -0.03    0.00    0.00   -0.01    0.00    0.00       0.06    0.02   -0.28
#  42    0.17   -0.07    0.01   -0.05   -0.02    0.00    0.00       0.04   -0.66   -0.28
#  43    0.77    0.00    0.00   -0.06    0.01    0.00    0.00       0.72   -1.63    0.32
#  44    0.10   -0.08    0.01    0.14   -0.03    0.00    0.00       0.14    1.51   -0.28
#  45    0.08   -0.05    0.00    0.06   -0.02    0.00    0.00       0.07    0.85   -0.28
#  46    0.02   -0.10    0.00    0.01   -0.03    0.00    0.00      -0.08    0.13   -0.28
#  47    0.09   -0.36    0.24    0.09   -0.06    0.00    0.00       0.00    0.45   -0.28
#  48   -0.31   -0.05    0.00    0.14   -0.01    0.00    0.00      -0.24    2.74   -0.28
#  49   -0.38   -0.04    0.00    0.08   -0.01    0.00    0.00      -0.35    2.19   -0.28
#  50   -0.97   -0.17    0.01    0.54   -0.05    0.00    0.00      -0.64    2.87   -0.28
#  51   -2.53   -0.30    0.22    0.51   -0.04    0.00    0.00      -2.14    3.32   -0.28
#  52    0.08   -0.07    0.00   -0.08   -0.02    0.00    0.00      -0.09   -1.03   -0.28
#  53    0.38   -0.05    0.00   -0.03   -0.01    0.00    0.00       0.28   -0.54   -0.21
#  54    0.99   -0.27    0.05   -0.15   -0.07    0.00    0.00       0.55   -0.60   -0.28
#  55    1.66   -0.83    0.42   -0.39   -0.14    0.00    0.00       0.71   -0.76   -0.28
#  56    0.07   -0.21    0.01   -0.32   -0.06    0.00    0.00      -0.51   -1.44   -0.28
#  57    0.57   -0.32    0.03   -0.34   -0.09    0.00    0.00      -0.15   -1.08   -0.28

@<TRIPOS>MOLECULE
       AVX17542_0       100
   57    58     0     0     0



@<TRIPOS>ATOM
      1 C1         -0.6710   -27.8896     4.6770 C.3        1          -0.1445
      2 C2         -0.9825   -28.4783     3.2995 C.3        1          -0.1125
      3 C3         -2.1927   -29.4085     3.4043 C.3        1          -0.1612
      4 C4         -1.2932   -27.3456     2.3191 C.3        1          -0.1182
      5 C5         -0.0829   -26.4155     2.2143 C.3        1          -0.0824
      6 C6         -0.3936   -25.2827     1.2338 C.3        1           0.1297
      7 N1         -0.6917   -25.8465    -0.0851 N.am       1          -0.7159
      8 C7         -1.8916   -25.6244    -0.6573 C.2        1           0.5020
      9 O1         -2.7244   -24.9577    -0.0805 O.2        1          -0.5497
     10 C8         -2.1983   -26.2043    -2.0141 C.3        1          -0.1453
     11 C9         -1.1957   -25.6668    -3.0372 C.3        1          -0.1022
     12 C10        -1.2987   -24.1416    -3.0994 C.3        1          -0.1530
     13 C11        -0.2962   -23.6041    -4.1225 C.3        1          -0.0097
     14 N2          1.0645   -23.9870    -3.7226 N.4        1          -0.6381
     15 H1          1.2699   -23.5987    -2.8143 H          1           0.4343
     16 H2          1.1324   -24.9929    -3.6815 H          1           0.4350
     17 H3          1.7257   -23.6326    -4.3973 H          1           0.4369
     18 C12         1.1265   -27.2069     1.7125 C.3        1          -0.0614
     19 C13         2.3186   -26.2908     1.6093 C.ar       1          -0.0346
     20 C14         2.7910   -25.6461     2.7309 C.ar       1          -0.1341
     21 C15         3.8867   -24.8019     2.6455 C.ar       1          -0.1025
     22 C16         4.5186   -24.5977     1.4320 C.ar       1          -0.0021
     23 O2          5.5918   -23.8378     1.0730 O.3        1          -0.3185
     24 C17         5.5084   -23.6626    -0.3494 C.3        1           0.2048
     25 O3          4.8455   -24.8705    -0.7521 O.3        1          -0.2783
     26 C18         4.0536   -25.2427     0.2879 C.ar       1           0.0763
     27 C19         2.9497   -26.0995     0.3744 C.ar       1          -0.1243
     28 C20         2.4528   -26.7907    -0.8261 C.2        1           0.5224
     29 O4          2.8907   -27.8940    -1.1220 O.co2      1          -0.6755
     30 O5          1.6016   -26.2620    -1.5281 O.co2      1          -0.6717
     31 H4          0.1911   -27.2268     4.6024 H          1           0.0473
     32 H5         -1.5327   -27.3257     5.0344 H          1           0.0507
     33 H6         -0.4498   -28.6964     5.3754 H          1           0.0547
     34 H7         -0.1207   -29.0420     2.9422 H          1           0.0777
     35 H8         -2.4145   -29.8278     2.4230 H          1           0.0647
     36 H9         -1.9714   -30.2155     4.1028 H          1           0.0482
     37 H10        -3.0544   -28.8448     3.7618 H          1           0.0603
     38 H11        -1.5151   -27.7652     1.3378 H          1           0.0695
     39 H12        -2.1549   -26.7819     2.6765 H          1           0.0575
     40 H13         0.1390   -25.9959     3.1955 H          1           0.1018
     41 H14        -1.2553   -24.7190     1.5912 H          1           0.0758
     42 H15         0.4686   -24.6202     1.1591 H          1           0.0637
     43 H16        -0.0257   -26.3799    -0.5465 H          1           0.4045
     44 H17        -2.1250   -27.2910    -1.9697 H          1           0.0937
     45 H18        -3.2080   -25.9201    -2.3108 H          1           0.0961
     46 H19        -0.1861   -25.9510    -2.7404 H          1           0.0832
     47 H20        -1.4176   -26.0863    -4.0184 H          1           0.0818
     48 H21        -2.3083   -23.8574    -3.3963 H          1           0.0878
     49 H22        -1.0768   -23.7220    -2.1182 H          1           0.0890
     50 H23        -0.5180   -24.0235    -5.1037 H          1           0.1354
     51 H24        -0.3694   -22.5174    -4.1670 H          1           0.1346
     52 H25         1.3479   -28.0139     2.4110 H          1           0.0504
     53 H26         0.9046   -27.6263     0.7312 H          1           0.1124
     54 H27         2.3042   -25.7991     3.6828 H          1           0.1280
     55 H28         4.2488   -24.3004     3.5308 H          1           0.1248
     56 H29         4.9102   -22.7867    -0.6004 H          1           0.1244
     57 H30         6.5017   -23.5959    -0.7932 H          1           0.0764
@<TRIPOS>BOND
     1    1    2 1
     2    1   31 1
     3    1   32 1
     4    1   33 1
     5    2    3 1
     6    2    4 1
     7    2   34 1
     8    3   35 1
     9    3   36 1
    10    3   37 1
    11    4    5 1
    12    4   38 1
    13    4   39 1
    14    5    6 1
    15    5   18 1
    16    5   40 1
    17    6    7 1
    18    6   41 1
    19    6   42 1
    20    7    8 am
    21    7   43 1
    22    8    9 2
    23    8   10 1
    24   10   11 1
    25   10   44 1
    26   10   45 1
    27   11   12 1
    28   11   46 1
    29   11   47 1
    30   12   13 1
    31   12   48 1
    32   12   49 1
    33   13   14 1
    34   13   50 1
    35   13   51 1
    36   14   15 1
    37   14   16 1
    38   14   17 1
    39   18   19 1
    40   18   52 1
    41   18   53 1
    42   19   27 ar
    43   19   20 ar
    44   20   21 ar
    45   20   54 1
    46   21   22 ar
    47   21   55 1
    48   22   26 ar
    49   22   23 1
    50   23   24 1
    51   24   25 1
    52   24   56 1
    53   24   57 1
    54   25   26 1
    55   26   27 ar
    56   27   28 1
    57   28   29 1
    58   28   30 2
