AVX101119_0, 3
##########                 Name:          AVX101119_0
##########          Protonation:                   65
##########               SMILES:   C[NH+](Cc1cccc(c1C(=O)[O-])OC)Cc2cc3c(cc2C(=O)NCc4ccc(cc4)OC)OCO3
##########            Long Name:   )methylcarbamoyl]-1,3-benzodioxol-5-yl]methyl-methyl-ammonio]methyl]benzoate
##########          FlexRecCode: 1
##########               Number:                  424
##########   Ligand Source File: /raid1/people/rgc/Examples/sampl4/screening/ligands/build_1//sampl4-hivint-00000
##########           GlobalRank: 25
##########                 Rank:                    1
##########               Setnum:                  179
##########             Matchnum:                15064
##########                Cloud:                    1
##########        Electrostatic:           -19.156502
##########        Van der Waals:           -23.575659
##########  Ligand Polar Desolv:             9.568617
########## Ligand Apolar Desolv:            -3.032538
##########      Internal Energy:             0.000000
##########      Receptor Energy: 0.0
########## Receptor Desolvation:             0.000000
########## Receptor Hydrophobic:             0.000000
##########         Total Energy: -36.2
##########        Ligand Charge:             0.000000
##########            Arbitrary:    +999.9990
##########     heavy atom count:   36
##########           pose count:    1
##########        Ligand Energy:             0.000000
# num electro vdwattr vdwrepu polsolv apolsol rdesolv rhydroe totalscore fullpol fullapo
#   1    0.03   -0.49    0.09    0.01    0.01    0.00    0.00      -0.36    0.03    0.03
#   2   -0.31   -0.30    0.03    0.06    0.12    0.00    0.00      -0.40    0.50    0.93
#   3    0.14   -0.41    0.06   -0.01   -0.04    0.00    0.00      -0.26   -0.08   -0.31
#   4   -0.16   -0.17    0.01   -0.04   -0.03    0.00    0.00      -0.39   -0.47   -0.42
#   5    0.04   -0.16    0.00   -0.01   -0.03    0.00    0.00      -0.16   -0.21   -0.45
#   6    0.30   -0.27    0.01   -0.05   -0.04    0.00    0.00      -0.06   -0.50   -0.37
#   7   -1.18   -0.23    0.01    0.10   -0.06    0.00    0.00      -1.35    0.77   -0.44
#   8    5.08   -0.27    0.01   -0.40    0.26    0.00    0.00       4.67   -3.61    2.32
#   9   -6.04   -0.54    0.07    0.43   -0.12    0.00    0.00      -6.20    2.28   -0.65
#  10    8.44   -1.01    0.24   -0.34    0.08    0.00    0.00       7.41   -1.39    0.32
#  11    0.91   -0.87    0.45   -0.10   -0.08    0.00    0.00       0.31   -0.49   -0.41
#  12    0.02   -0.85    0.70   -0.03   -0.07    0.00    0.00      -0.22   -0.19   -0.45
#  13   -0.03   -0.72    0.37    0.00   -0.05    0.00    0.00      -0.44   -0.01   -0.33
#  14   -0.30   -0.85    0.19    0.01   -0.08    0.00    0.00      -1.04    0.04   -0.33
#  15    0.13   -0.46    0.03   -0.01    0.11    0.00    0.00      -0.21   -0.05    0.50
#  16   -0.06   -0.21    0.02    0.07    0.00    0.00    0.00      -0.18    0.64    0.02
#  17    0.03   -0.25    0.03   -0.03    0.06    0.00    0.00      -0.17   -0.32    0.52
#  18    1.77   -1.21    0.24   -0.14   -0.11    0.00    0.00       0.57   -0.44   -0.34
#  19    0.61   -1.01    0.21   -0.04   -0.11    0.00    0.00      -0.33   -0.13   -0.39
#  20   -1.37   -0.72    0.08    0.15   -0.08    0.00    0.00      -1.94    0.47   -0.26
#  21    6.26   -0.66    0.04   -0.66    0.04    0.00    0.00       5.02   -2.46    0.16
#  22   -3.84   -0.01    0.00    0.05    0.03    0.00    0.00      -3.76    0.54    0.33
#  23    1.27   -1.93    1.32   -0.34   -0.15    0.00    0.00       0.17   -0.95   -0.41
#  24   -0.91   -0.55    0.03    0.09   -0.09    0.00    0.00      -1.43    0.28   -0.29
#  25    0.63   -1.01    0.09   -0.02   -0.10    0.00    0.00      -0.41   -0.06   -0.30
#  26    1.01   -1.71    0.28   -0.36   -0.18    0.00    0.00      -0.95   -0.81   -0.40
#  27   -0.18   -2.18    0.54   -0.13   -0.22    0.00    0.00      -2.17   -0.27   -0.47
#  28   -2.02   -1.64    0.20    0.19   -0.19    0.00    0.00      -3.47    0.42   -0.42
#  29    1.54   -1.16    0.12   -0.35   -0.12    0.00    0.00       0.03   -0.94   -0.31
#  30   -4.04   -1.44    0.64    1.78    0.13    0.00    0.00      -2.93    4.90    0.36
#  31    0.30   -1.56    0.69   -0.03    0.01    0.00    0.00      -0.58   -0.07    0.03
#  32   -0.18   -0.83    0.06    0.69   -0.12    0.00    0.00      -0.37    2.33   -0.40
#  33    0.54   -0.59    0.06   -1.76   -0.03    0.00    0.00      -1.77   -8.86   -0.15
#  34   -2.92   -1.52    1.64    2.37   -0.06    0.00    0.00      -0.49   11.18   -0.30
#  35    0.22   -0.33    0.01    2.88   -0.09    0.00    0.00       2.70   19.80   -0.59
#  36   -0.01   -0.60    0.08   -0.02   -0.08    0.00    0.00      -0.63   -0.11   -0.45
#  37   -0.18   -0.89    0.30    0.02   -0.09    0.00    0.00      -0.84    0.08   -0.46
#  38    0.11   -0.10    0.01    0.07   -0.04    0.00    0.00       0.05    0.48   -0.28
#  39    0.08   -0.47    0.42    0.09   -0.08    0.00    0.00       0.04    0.31   -0.26
#  40    0.02   -0.11    0.01    0.03   -0.03    0.00    0.00      -0.08    0.28   -0.26
#  41    0.08   -0.01    0.00    0.01    0.00    0.00    0.00       0.07    0.65   -0.22
#  42   -0.15   -0.02    0.00    0.03   -0.01    0.00    0.00      -0.15    1.08   -0.28
#  43   -0.53   -0.08    0.00    0.02   -0.02    0.00    0.00      -0.61    0.22   -0.28
#  44   -0.95   -0.11    0.02    0.05   -0.03    0.00    0.00      -1.03    0.48   -0.28
#  45   -1.56    0.00    0.00    0.11    0.02    0.00    0.00      -1.44    2.75    0.43
#  46   -0.03   -0.08    0.02    0.10   -0.02    0.00    0.00       0.00    1.21   -0.22
#  47   -0.02   -0.03    0.00    0.02   -0.01    0.00    0.00      -0.04    0.91   -0.28
#  48   -0.03   -0.09    0.01    0.09   -0.03    0.00    0.00      -0.05    0.90   -0.28
#  49   -3.28   -0.34    0.08    0.20   -0.05    0.00    0.00      -3.39    0.67   -0.18
#  50   -4.32   -0.27    0.06    0.06   -0.06    0.00    0.00      -4.53    0.24   -0.26
#  51   -5.29   -0.33    0.06    0.65   -0.07    0.00    0.00      -4.97    2.11   -0.23
#  52   -1.43   -0.58    0.26    0.58   -0.07    0.00    0.00      -1.25    1.56   -0.18
#  53   -3.79   -1.11    2.12    0.46   -0.08    0.00    0.00      -2.39    1.38   -0.23
#  54   -2.05   -0.75    0.64    1.08   -0.09    0.00    0.00      -1.17    3.35   -0.28
#  55   -2.97   -0.14    0.01   -0.03   -0.03    0.00    0.00      -3.16   -0.16   -0.20
#  56   -2.95   -0.22    0.01    0.58   -0.06    0.00    0.00      -2.63    2.70   -0.27
#  57   -1.58   -0.38    0.06    1.11   -0.11    0.00    0.00      -0.90    2.89   -0.28
#  58    0.32   -0.62    0.29    0.61   -0.11    0.00    0.00       0.49    1.55   -0.28
#  59    1.90   -0.35    0.03    0.00   -0.09    0.00    0.00       1.49    0.00   -0.22
#  60    1.68   -0.63    0.64   -0.21   -0.10    0.00    0.00       1.37   -0.57   -0.28
#  61    1.04   -0.71    0.28   -0.12   -0.12    0.00    0.00       0.36   -0.26   -0.26
#  62    0.77   -0.48    0.34   -0.08   -0.09    0.00    0.00       0.46   -0.23   -0.26
#  63    0.06   -0.15    0.01    0.07   -0.04    0.00    0.00      -0.06    0.42   -0.28
#  64    0.17   -0.32    0.19   -0.03   -0.06    0.00    0.00      -0.04   -0.13   -0.28

@<TRIPOS>MOLECULE
      AVX101119_0        65
   64    67     0     0     0



@<TRIPOS>ATOM
      1 C1         -2.9396   -29.3521    -2.0935 C.3        1           0.0255
      2 O1         -3.5099   -28.0987    -1.7104 O.3        1          -0.3155
      3 C2         -2.7726   -26.9841    -1.9571 C.ar       1           0.1401
      4 C3         -3.2631   -25.7349    -1.6070 C.ar       1          -0.2115
      5 C4         -2.5114   -24.6035    -1.8584 C.ar       1          -0.0575
      6 C5         -1.2713   -24.7154    -2.4597 C.ar       1          -0.1567
      7 C6         -0.4536   -23.4795    -2.7332 C.3        1           0.1668
      8 N1         -0.4756   -22.6088    -1.5554 N.am       1          -0.7151
      9 C7         -0.9695   -21.3583    -1.6508 C.2        1           0.5659
     10 O2         -1.3967   -20.9530    -2.7144 O.2        1          -0.5313
     11 C8         -0.9918   -20.4811    -0.4639 C.ar       1          -0.1103
     12 C9         -2.1002   -20.4819     0.3873 C.ar       1          -0.0562
     13 C10        -2.1171   -19.6597     1.4966 C.ar       1           0.0387
     14 C11        -1.0278   -18.8296     1.7662 C.ar       1           0.0866
     15 O3         -1.2886   -18.1264     2.9050 O.3        1          -0.2956
     16 C12        -2.7109   -18.2284     3.1038 C.3        1           0.2108
     17 O4         -3.0577   -19.4730     2.4686 O.3        1          -0.2983
     18 C13         0.0726   -18.8297     0.9199 C.ar       1          -0.1314
     19 C14         0.0975   -19.6525    -0.1853 C.ar       1          -0.0417
     20 C15         1.2975   -19.6536    -1.0969 C.3        1           0.0560
     21 N2          2.2611   -20.6622    -0.6367 N.4        1          -0.3751
     22 H1          1.7658   -21.4888    -0.3374 H          1           0.4301
     23 C16         3.0363   -20.1216     0.4879 C.3        1          -0.0649
     24 C17         3.1709   -21.0083    -1.7370 C.3        1           0.0513
     25 C18         4.1595   -22.0431    -1.2649 C.ar       1          -0.0860
     26 C19         5.4970   -21.9069    -1.5650 C.ar       1          -0.1562
     27 C20         6.4109   -22.8547    -1.1333 C.ar       1          -0.0788
     28 C21         5.9922   -23.9459    -0.3980 C.ar       1          -0.2074
     29 C22         4.6497   -24.1007    -0.0863 C.ar       1           0.1660
     30 O5          4.2370   -25.1720     0.6352 O.3        1          -0.2655
     31 C23         4.2193   -25.0288     2.0568 C.3        1           0.0183
     32 C24         3.7213   -23.1401    -0.5165 C.ar       1          -0.1584
     33 C25         2.2948   -23.2894    -0.1868 C.2        1           0.5202
     34 O6          1.8509   -22.8016     0.8436 O.co2      1          -0.7057
     35 O7          1.5530   -23.9013    -0.9430 O.co2      1          -0.6303
     36 C26        -0.7801   -25.9595    -2.8099 C.ar       1          -0.0571
     37 C27        -1.5255   -27.0944    -2.5559 C.ar       1          -0.1533
     38 H2         -3.6295   -30.1574    -1.8411 H          1           0.1031
     39 H3         -2.7555   -29.3547    -3.1679 H          1           0.0571
     40 H4         -1.9988   -29.5000    -1.5634 H          1           0.0577
     41 H5         -4.2319   -25.6468    -1.1380 H          1           0.1311
     42 H6         -2.8927   -23.6306    -1.5855 H          1           0.1274
     43 H7          0.5746   -23.7657    -2.9543 H          1           0.0837
     44 H8         -0.8740   -22.9472    -3.5865 H          1           0.0814
     45 H9         -0.1348   -22.9321    -0.7067 H          1           0.4035
     46 H10        -2.9427   -21.1243     0.1774 H          1           0.1484
     47 H11        -2.9474   -18.2624     4.1673 H          1           0.1424
     48 H12        -3.2253   -17.3965     2.6225 H          1           0.0947
     49 H13         0.9138   -18.1861     1.1309 H          1           0.1413
     50 H14         0.9816   -19.8899    -2.1131 H          1           0.1571
     51 H15         1.7662   -18.6696    -1.0817 H          1           0.1539
     52 H16         3.7512   -20.8700     0.8294 H          1           0.1174
     53 H17         3.5713   -19.2287     0.1646 H          1           0.1205
     54 H18         2.3612   -19.8648     1.3043 H          1           0.1201
     55 H19         2.5958   -21.4094    -2.5715 H          1           0.1697
     56 H20         3.7061   -20.1155    -2.0604 H          1           0.1153
     57 H21         5.8350   -21.0572    -2.1398 H          1           0.1248
     58 H22         7.4574   -22.7395    -1.3738 H          1           0.1272
     59 H23         6.7111   -24.6799    -0.0656 H          1           0.1308
     60 H24         3.8701   -25.9562     2.5111 H          1           0.1022
     61 H25         5.2254   -24.8065     2.4122 H          1           0.0525
     62 H26         3.5486   -24.2147     2.3318 H          1           0.0516
     63 H27         0.1891   -26.0445    -3.2791 H          1           0.1337
     64 H28        -1.1397   -28.0664    -2.8262 H          1           0.1349
@<TRIPOS>BOND
     1    1    2 1
     2    1   38 1
     3    1   39 1
     4    1   40 1
     5    2    3 1
     6    3   37 ar
     7    3    4 ar
     8    4    5 ar
     9    4   41 1
    10    5    6 ar
    11    5   42 1
    12    6    7 1
    13    6   36 ar
    14    7    8 1
    15    7   43 1
    16    7   44 1
    17    8    9 am
    18    8   45 1
    19    9   10 2
    20    9   11 1
    21   11   19 ar
    22   11   12 ar
    23   12   13 ar
    24   12   46 1
    25   13   17 1
    26   13   14 ar
    27   14   15 1
    28   14   18 ar
    29   15   16 1
    30   16   17 1
    31   16   47 1
    32   16   48 1
    33   18   19 ar
    34   18   49 1
    35   19   20 1
    36   20   21 1
    37   20   50 1
    38   20   51 1
    39   21   22 1
    40   21   23 1
    41   21   24 1
    42   23   52 1
    43   23   53 1
    44   23   54 1
    45   24   25 1
    46   24   55 1
    47   24   56 1
    48   25   32 ar
    49   25   26 ar
    50   26   27 ar
    51   26   57 1
    52   27   28 ar
    53   27   58 1
    54   28   29 ar
    55   28   59 1
    56   29   30 1
    57   29   32 ar
    58   30   31 1
    59   31   60 1
    60   31   61 1
    61   31   62 1
    62   32   33 1
    63   33   34 1
    64   33   35 2
    65   36   37 ar
    66   36   63 1
    67   37   64 1
