AVX17260_0, 3
##########                 Name:           AVX17260_0
##########          Protonation:                  100
##########               SMILES:   c1ccc2c(c1)[C@@H](C(=O)N2)Cc3ccc4c(c3C(=O)[O-])OCO4
##########            Long Name:   5-[[(3S)-2-oxoindolin-3-yl]methyl]-1,3-benzodioxole-4-carboxylate
##########          FlexRecCode: 1
##########               Number:                  439
##########   Ligand Source File: /raid1/people/rgc/Examples/sampl4/screening/ligands/build_1//sampl4-hivint-00000
##########           GlobalRank: 115
##########                 Rank:                    1
##########               Setnum:                    1
##########             Matchnum:                 5546
##########                Cloud:                    1
##########        Electrostatic:           -20.229261
##########        Van der Waals:           -29.294949
##########  Ligand Polar Desolv:            29.768717
########## Ligand Apolar Desolv:            -2.174388
##########      Internal Energy:             0.000000
##########      Receptor Energy: 0.0
########## Receptor Desolvation:             0.000000
########## Receptor Hydrophobic:             0.000000
##########         Total Energy: -21.93
##########        Ligand Charge:            -1.000000
##########            Arbitrary:    +999.9990
##########     heavy atom count:   23
##########           pose count:    1
##########        Ligand Energy:             0.000000
# num electro vdwattr vdwrepu polsolv apolsol rdesolv rhydroe totalscore fullpol fullapo
#   1  -12.69   -2.65    0.91   12.78   -0.20    0.00    0.00      -1.85   26.42   -0.41
#   2    8.14   -1.81    0.48   -8.62   -0.06    0.00    0.00      -1.87  -19.52   -0.13
#   3  -10.65   -1.75    0.92   12.27   -0.20    0.00    0.00       0.59   34.92   -0.56
#   4   -0.93   -1.66    0.20    2.74   -0.16    0.00    0.00       0.20    6.01   -0.34
#   5    0.86   -2.16    0.32    0.10   -0.18    0.00    0.00      -1.06    0.18   -0.32
#   6   -4.36   -2.30    0.36    7.10    0.22    0.00    0.00       1.02   10.86    0.34
#   7    2.10   -2.15    0.39   -2.44    0.01    0.00    0.00      -2.08   -3.53    0.02
#   8   -1.98   -3.07    0.85    4.00    0.37    0.00    0.00       0.17    5.66    0.52
#   9    0.00   -2.88    0.88    0.08   -0.20    0.00    0.00      -2.13    0.13   -0.33
#  10    0.02   -3.20    1.31    0.41   -0.27    0.00    0.00      -1.73    0.72   -0.47
#  11    0.57   -2.45    0.67    0.54   -0.22    0.00    0.00      -0.89    1.08   -0.45
#  12   -0.02   -1.65    0.25    0.51   -0.14    0.00    0.00      -1.04    1.23   -0.33
#  13    0.40   -0.77    0.07    0.46   -0.07    0.00    0.00       0.09    1.30   -0.20
#  14    0.35   -0.50    0.05    0.22   -0.05    0.00    0.00       0.07    0.86   -0.20
#  15   -7.97   -1.07    0.16   -4.24   -0.15    0.00    0.00     -13.27  -13.26   -0.48
#  16    6.42   -2.40    1.72    7.95   -0.09    0.00    0.00      13.59   19.75   -0.23
#  17   14.08   -0.88    0.06    4.36    0.54    0.00    0.00      18.15   14.70    1.81
#  18   -2.44   -0.52    0.02   -0.27   -0.16    0.00    0.00      -3.36   -1.30   -0.76
#  19    1.94   -0.55    0.04    0.38   -0.10    0.00    0.00       1.71    1.84   -0.48
#  20    0.45   -0.38    0.03    0.08   -0.07    0.00    0.00       0.11    0.53   -0.47
#  21    0.15   -0.63    0.21    0.08   -0.06    0.00    0.00      -0.25    0.61   -0.47
#  22   -0.03   -0.83    0.38    0.08   -0.08    0.00    0.00      -0.48    0.50   -0.47
#  23    0.81   -0.50    0.02    0.43   -0.07    0.00    0.00       0.69    2.35   -0.39
#  24    1.31   -0.72    0.22   -1.71   -0.18    0.00    0.00      -1.09   -2.72   -0.28
#  25    0.65   -1.10    0.54   -1.29   -0.19    0.00    0.00      -1.38   -1.90   -0.28
#  26   -0.48   -0.69    0.30   -1.21   -0.16    0.00    0.00      -2.24   -2.13   -0.28
#  27   -1.53   -0.42    0.07   -0.83   -0.12    0.00    0.00      -2.83   -1.99   -0.28
#  28    0.03   -0.26    0.03   -0.61   -0.07    0.00    0.00      -0.88   -2.32   -0.28
#  29   -2.02   -0.32    0.06   -0.29   -0.03    0.00    0.00      -2.60   -1.13   -0.13
#  30    0.00   -0.22    0.09   -0.39   -0.05    0.00    0.00      -0.57   -2.31   -0.28
#  31  -12.14   -0.02    0.00   -2.35    0.16    0.00    0.00     -14.36   -8.61    0.59
#  32   -1.99   -0.21    0.05   -0.34   -0.06    0.00    0.00      -2.55   -1.50   -0.28
#  33   -0.30   -0.07    0.01   -0.05   -0.02    0.00    0.00      -0.44   -0.74   -0.28
#  34    0.18   -0.15    0.05   -0.05   -0.03    0.00    0.00       0.01   -0.49   -0.28
#  35    0.84   -0.28    0.22   -0.14   -0.04    0.00    0.00       0.60   -0.96   -0.28

@<TRIPOS>MOLECULE
       AVX17260_0       100
   35    38     0     0     0



@<TRIPOS>ATOM
      1 O1          5.3678   -24.4266     1.7752 O.co2      1          -0.6757
      2 C1          5.2086   -24.6330     0.5799 C.2        1           0.5374
      3 O2          4.3492   -25.4183     0.2039 O.co2      1          -0.6715
      4 C2          6.0468   -23.9321    -0.4060 C.ar       1          -0.0957
      5 C3          7.2506   -24.5013    -0.8389 C.ar       1           0.0733
      6 O3          7.8792   -25.6647    -0.5254 O.3        1          -0.2778
      7 C4          9.2520   -25.5053    -0.9136 C.3        1           0.2048
      8 O4          9.1375   -24.5934    -2.0164 O.3        1          -0.3197
      9 C5          8.0361   -23.8285    -1.7724 C.ar       1          -0.0005
     10 C6          7.6250   -22.6040    -2.2676 C.ar       1          -0.1073
     11 C7          6.4335   -22.0402    -1.8395 C.ar       1          -0.1324
     12 C8          5.6429   -22.6947    -0.9213 C.ar       1          -0.0438
     13 C9          4.3460   -22.0762    -0.4667 C.3        1          -0.0803
     14 C10         3.2115   -22.5394    -1.3826 C.3        1          -0.0626
     15 C11         3.1646   -21.6948    -2.6381 C.2        1           0.5573
     16 O5          4.0422   -21.5898    -3.4689 O.2        1          -0.4764
     17 N1          1.9681   -21.0839    -2.6595 N.am       1          -0.6622
     18 C12         1.1853   -21.4167    -1.5534 C.ar       1           0.1696
     19 C13        -0.0984   -21.0129    -1.1911 C.ar       1          -0.1540
     20 C14        -0.6715   -21.4870    -0.0294 C.ar       1          -0.0879
     21 C15         0.0212   -22.3650     0.7843 C.ar       1          -0.1571
     22 C16         1.2966   -22.7703     0.4313 C.ar       1          -0.0640
     23 C17         1.8707   -22.2988    -0.7279 C.ar       1          -0.1337
     24 H1          9.8380   -25.0681    -0.1050 H          1           0.1222
     25 H2          9.6795   -26.4550    -1.2350 H          1           0.0741
     26 H3          8.2357   -22.0847    -2.9912 H          1           0.1240
     27 H4          6.1213   -21.0835    -2.2314 H          1           0.1282
     28 H5          4.1356   -22.3848     0.5572 H          1           0.0646
     29 H6          4.4270   -20.9900    -0.5094 H          1           0.1446
     30 H7          3.3304   -23.5935    -1.6332 H          1           0.1056
     31 H8          1.6815   -20.4806    -3.3629 H          1           0.4066
     32 H9         -0.6458   -20.3276    -1.8214 H          1           0.1207
     33 H10        -1.6665   -21.1707     0.2465 H          1           0.1232
     34 H11        -0.4317   -22.7331     1.6930 H          1           0.1225
     35 H12         1.8408   -23.4554     1.0644 H          1           0.1241
@<TRIPOS>BOND
     1    1    2 1
     2    2    3 2
     3    2    4 1
     4    4   12 ar
     5    4    5 ar
     6    5    9 ar
     7    5    6 1
     8    6    7 1
     9    7    8 1
    10    7   24 1
    11    7   25 1
    12    8    9 1
    13    9   10 ar
    14   10   11 ar
    15   10   26 1
    16   11   12 ar
    17   11   27 1
    18   12   13 1
    19   13   14 1
    20   13   28 1
    21   13   29 1
    22   14   23 1
    23   14   15 1
    24   14   30 1
    25   15   16 2
    26   15   17 am
    27   17   18 1
    28   17   31 1
    29   18   23 ar
    30   18   19 ar
    31   19   20 ar
    32   19   32 1
    33   20   21 ar
    34   20   33 1
    35   21   22 ar
    36   21   34 1
    37   22   23 ar
    38   22   35 1
