AVX101124_1, 3
##########                 Name:          AVX101124_0
##########          Protonation:                  100
##########               SMILES:   c1ccc\2c(c1)C[C@@H](/C2=C\c3ccc4c(c3C(=O)[O-])OCO4)NC(=O)CCCCC[NH3+]
##########            Long Name:   zaniumylhexanoylamino)indan-1-ylidene]methyl]-1,3-benzodioxole-4-carboxylate
##########          FlexRecCode: 1
##########               Number:                  690
##########   Ligand Source File: /raid1/people/rgc/Examples/sampl4/screening/ligands/build_1//sampl4-hivint-00000
##########           GlobalRank: 56
##########                 Rank:                    1
##########               Setnum:                   12
##########             Matchnum:                 9394
##########                Cloud:                    1
##########        Electrostatic:           -32.790688
##########        Van der Waals:           -12.790984
##########  Ligand Polar Desolv:            17.446470
########## Ligand Apolar Desolv:            -1.451193
##########      Internal Energy:             0.000000
##########      Receptor Energy: 0.0
########## Receptor Desolvation:             0.000000
########## Receptor Hydrophobic:             0.000000
##########         Total Energy: -29.59
##########        Ligand Charge:             0.000000
##########            Arbitrary:    +999.9990
##########     heavy atom count:   31
##########           pose count:    1
##########        Ligand Energy:             0.000000
# num electro vdwattr vdwrepu polsolv apolsol rdesolv rhydroe totalscore fullpol fullapo
#   1   14.93   -0.84    0.07   -6.31    0.28    0.00    0.00       8.14  -19.41    0.86
#   2  -13.30   -0.02    0.00    3.86    0.15    0.00    0.00      -9.32   15.93    0.60
#   3   -8.26   -0.02    0.00    3.14    0.12    0.00    0.00      -5.01   14.85    0.58
#   4   -7.39   -0.01    0.00    1.37    0.05    0.00    0.00      -5.97   15.20    0.58
#   5    0.30   -0.95    0.14    0.26   -0.18    0.00    0.00      -0.43    0.70   -0.49
#   6    2.48   -1.03    0.30   -1.05   -0.09    0.00    0.00       0.62   -2.85   -0.24
#   7    1.44   -0.59    0.08   -0.40   -0.06    0.00    0.00       0.48   -1.42   -0.22
#   8    2.11   -0.84    0.28   -0.14   -0.06    0.00    0.00       1.35   -0.47   -0.19
#   9    1.93   -0.46    0.09   -0.02   -0.04    0.00    0.00       1.50   -0.09   -0.24
#  10   -3.75   -0.29    0.01   -0.21   -0.07    0.00    0.00      -4.32   -1.90   -0.65
#  11    4.47   -0.29    0.01    0.45    0.06    0.00    0.00       4.69    2.99    0.38
#  12    1.58   -0.20    0.00    0.35    0.15    0.00    0.00       1.88    4.47    1.88
#  13    0.02   -0.12    0.00   -0.10   -0.02    0.00    0.00      -0.21   -1.27   -0.20
#  14    0.00   -0.07    0.00    0.01   -0.01    0.00    0.00      -0.07    0.25   -0.28
#  15   -0.06   -0.06    0.00    0.01   -0.01    0.00    0.00      -0.12    0.49   -0.44
#  16   -0.06   -0.03    0.00    0.01   -0.01    0.00    0.00      -0.10    0.33   -0.47
#  17   -0.08   -0.04    0.00    0.01   -0.01    0.00    0.00      -0.12    0.32   -0.47
#  18   -0.09   -0.06    0.00    0.03   -0.01    0.00    0.00      -0.14    0.93   -0.47
#  19   -0.08   -0.09    0.00    0.06   -0.02    0.00    0.00      -0.13    1.57   -0.47
#  20   -0.03   -0.09    0.00    0.05   -0.02    0.00    0.00      -0.09    1.23   -0.43
#  21   -0.23   -0.15    0.00    0.06   -0.02    0.00    0.00      -0.34    0.98   -0.38
#  22    0.03   -0.24    0.01    0.14   -0.04    0.00    0.00      -0.10    1.43   -0.37
#  23   -0.19   -0.54    0.05   -0.02   -0.07    0.00    0.00      -0.77   -0.09   -0.37
#  24   -1.22   -1.53    0.88    0.24   -0.11    0.00    0.00      -1.73    0.88   -0.39
#  25   -1.55   -2.99    3.90    0.10   -0.18    0.00    0.00      -0.72    0.27   -0.47
#  26    0.10   -1.61    0.32   -0.10   -0.13    0.00    0.00      -1.41   -0.25   -0.33
#  27   -4.78   -2.46    1.69    1.05    0.25    0.00    0.00      -4.24    2.21    0.53
#  28    1.57   -1.03    0.12   -0.64    0.01    0.00    0.00       0.03   -1.46    0.02
#  29   -3.05   -1.33    0.32    2.31    0.13    0.00    0.00      -1.62    6.07    0.34
#  30    0.84   -1.12    0.20   -0.23   -0.10    0.00    0.00      -0.42   -0.72   -0.32
#  31   -0.94   -0.73    0.09    0.98   -0.09    0.00    0.00      -0.70    4.25   -0.41
#  32    3.59   -0.86    0.13   -3.73   -0.04    0.00    0.00      -0.90  -14.72   -0.17
#  33   -6.30   -1.07    0.11    7.58   -0.11    0.00    0.00       0.22   23.03   -0.33
#  34   -1.62   -0.72    0.12    5.73   -0.12    0.00    0.00       3.39   25.65   -0.55
#  35   -4.90   -0.50    0.29    1.13   -0.09    0.00    0.00      -4.07    3.65   -0.28
#  36   -4.51   -0.38    0.08    1.01   -0.09    0.00    0.00      -3.90    3.10   -0.28
#  37   -1.48   -0.67    0.84    0.62   -0.11    0.00    0.00      -0.79    1.55   -0.28
#  38   -0.92   -0.31    0.08    0.54   -0.07    0.00    0.00      -0.69    2.04   -0.28
#  39   -0.46   -0.34    0.24    0.22   -0.06    0.00    0.00      -0.40    1.05   -0.28
#  40   -0.68   -0.09    0.00    0.04   -0.02    0.00    0.00      -0.75    0.52   -0.28
#  41   -2.00   -0.29    0.07    0.02   -0.07    0.00    0.00      -2.27    0.09   -0.28
#  42   -1.85   -0.50    0.40    0.10   -0.09    0.00    0.00      -1.94    0.33   -0.28
#  43   -1.56   -0.25    0.14    0.05   -0.04    0.00    0.00      -1.65    0.36   -0.28
#  44   -0.78   -0.10    0.00   -0.01   -0.03    0.00    0.00      -0.91   -0.13   -0.28
#  45   -0.44    0.00    0.00   -0.14    0.03    0.00    0.00      -0.56   -3.22    0.58
#  46    0.08   -0.07    0.01   -0.05   -0.01    0.00    0.00      -0.04   -0.65   -0.18
#  47    0.05   -0.02    0.00   -0.01   -0.01    0.00    0.00       0.01   -0.25   -0.28
#  48   -0.07   -0.02    0.00   -0.01   -0.01    0.00    0.00      -0.10   -0.29   -0.27
#  49    0.05    0.00    0.00    0.00    0.00    0.00    0.00       0.04    0.06   -0.28
#  50    0.07    0.00    0.00    0.00    0.00    0.00    0.00       0.06    0.00   -0.28
#  51    0.10   -0.01    0.00   -0.01    0.00    0.00    0.00       0.07   -0.75   -0.28
#  52    0.11   -0.02    0.00   -0.03   -0.01    0.00    0.00       0.05   -1.31   -0.28
#  53    0.41   -0.04    0.00   -0.07   -0.01    0.00    0.00       0.29   -1.96   -0.21
#  54    0.89   -0.35    0.18   -0.22   -0.04    0.00    0.00       0.47   -1.15   -0.19
#  55    2.01   -1.41    4.35   -0.25   -0.13    0.00    0.00       4.56   -0.53   -0.28
#  56   -0.02   -0.26    0.02   -0.13   -0.07    0.00    0.00      -0.46   -0.53   -0.28
#  57    0.69   -0.37    0.05   -0.21   -0.09    0.00    0.00       0.07   -0.65   -0.28

@<TRIPOS>MOLECULE
      AVX101124_0       100
   57    60     0     0     0



@<TRIPOS>ATOM
      1 N1          2.8324   -20.1623    -1.1527 N.4        1          -0.6382
      2 H1          2.6107   -19.2497    -0.7835 H          1           0.4365
      3 H2          3.6492   -20.5250    -0.6844 H          1           0.4353
      4 H3          2.0532   -20.7849    -1.0008 H          1           0.4344
      5 C1          3.1006   -20.0557    -2.5930 C.3        1          -0.0106
      6 C2          3.4369   -21.4394    -3.1529 C.3        1          -0.1512
      7 C3          2.2553   -22.3837    -2.9225 C.3        1          -0.1209
      8 C4          1.0168   -21.8335    -3.6325 C.3        1          -0.1010
      9 C5         -0.1649   -22.7778    -3.4022 C.3        1          -0.1464
     10 C6         -0.4400   -22.8870    -1.9247 C.2        1           0.5159
     11 O1         -0.7278   -21.8966    -1.2865 O.2        1          -0.5487
     12 N2         -0.3662   -24.0854    -1.3122 N.am       1          -0.7097
     13 C7         -0.6338   -24.1915     0.1243 C.3        1           0.1865
     14 C8         -2.0852   -23.8001     0.4382 C.3        1          -0.0834
     15 C9         -2.8494   -25.1011     0.4650 C.ar       1          -0.0982
     16 C10        -4.2072   -25.3556     0.4679 C.ar       1          -0.1095
     17 C11        -4.6721   -26.6581     0.4625 C.ar       1          -0.1241
     18 C12        -3.7820   -27.7180     0.4538 C.ar       1          -0.1187
     19 C13        -2.4242   -27.4807     0.4656 C.ar       1          -0.0984
     20 C14        -1.9468   -26.1655     0.4862 C.ar       1          -0.0371
     21 C15        -0.5726   -25.6340     0.5764 C.2        1          -0.1547
     22 C16         0.5221   -26.3027     0.9812 C.2        1           0.0091
     23 C17         1.8043   -25.5979     1.1203 C.ar       1          -0.0276
     24 C18         2.1522   -25.0081     2.3353 C.ar       1          -0.1137
     25 C19         3.3563   -24.3462     2.4675 C.ar       1          -0.1014
     26 C20         4.2339   -24.2580     1.3977 C.ar       1           0.0074
     27 O2          5.4589   -23.6740     1.2670 O.3        1          -0.3189
     28 C21         5.6810   -23.5046    -0.1409 C.3        1           0.2038
     29 O3          4.9357   -24.6035    -0.6863 O.3        1          -0.2760
     30 C22         3.9091   -24.8391     0.1732 C.ar       1           0.0726
     31 C23         2.6949   -25.5186     0.0245 C.ar       1          -0.1049
     32 C24         2.3461   -26.1388    -1.2594 C.2        1           0.5194
     33 O4          2.6627   -27.2995    -1.4844 O.co2      1          -0.6732
     34 O5          1.7388   -25.4952    -2.1050 O.co2      1          -0.6662
     35 H4          2.2182   -19.6638    -3.0989 H          1           0.1334
     36 H5          3.9423   -19.3830    -2.7571 H          1           0.1343
     37 H6          3.6359   -21.3604    -4.2216 H          1           0.0888
     38 H7          4.3192   -21.8314    -2.6470 H          1           0.0877
     39 H8          2.4948   -23.3695    -3.3213 H          1           0.0746
     40 H9          2.0562   -22.4626    -1.8537 H          1           0.0765
     41 H10         0.7772   -20.8478    -3.2338 H          1           0.0744
     42 H11         1.2158   -21.7544    -4.7013 H          1           0.0724
     43 H12        -1.0471   -22.3857    -3.9081 H          1           0.0928
     44 H13         0.0747   -23.7635    -3.8010 H          1           0.0960
     45 H14        -0.1359   -24.8774    -1.8225 H          1           0.4053
     46 H15         0.0651   -23.5781     0.6928 H          1           0.1035
     47 H16        -2.1426   -23.3078     1.4091 H          1           0.0828
     48 H17        -2.4778   -23.1467    -0.3410 H          1           0.0790
     49 H18        -4.9085   -24.5342     0.4747 H          1           0.1161
     50 H19        -5.7351   -26.8492     0.4653 H          1           0.1205
     51 H20        -4.1519   -28.7326     0.4382 H          1           0.1230
     52 H21        -1.7303   -28.3081     0.4596 H          1           0.1266
     53 H22         0.4587   -27.3576     1.2041 H          1           0.1614
     54 H23         1.4767   -25.0692     3.1758 H          1           0.1335
     55 H24         3.6170   -23.8926     3.4123 H          1           0.1266
     56 H25         5.2810   -22.5517    -0.4873 H          1           0.1245
     57 H26         6.7402   -23.5934    -0.3825 H          1           0.0780
@<TRIPOS>BOND
     1    1    2 1
     2    1    3 1
     3    1    4 1
     4    1    5 1
     5    5    6 1
     6    5   35 1
     7    5   36 1
     8    6    7 1
     9    6   37 1
    10    6   38 1
    11    7    8 1
    12    7   39 1
    13    7   40 1
    14    8    9 1
    15    8   41 1
    16    8   42 1
    17    9   10 1
    18    9   43 1
    19    9   44 1
    20   10   11 2
    21   10   12 am
    22   12   13 1
    23   12   45 1
    24   13   21 1
    25   13   14 1
    26   13   46 1
    27   14   15 1
    28   14   47 1
    29   14   48 1
    30   15   20 ar
    31   15   16 ar
    32   16   17 ar
    33   16   49 1
    34   17   18 ar
    35   17   50 1
    36   18   19 ar
    37   18   51 1
    38   19   20 ar
    39   19   52 1
    40   20   21 1
    41   21   22 2
    42   22   23 1
    43   22   53 1
    44   23   31 ar
    45   23   24 ar
    46   24   25 ar
    47   24   54 1
    48   25   26 ar
    49   25   55 1
    50   26   30 ar
    51   26   27 1
    52   27   28 1
    53   28   29 1
    54   28   56 1
    55   28   57 1
    56   29   30 1
    57   30   31 ar
    58   31   32 1
    59   32   33 1
    60   32   34 2
