AVX17257_0, 3
##########                 Name:           AVX17257_0
##########          Protonation:                  100
##########               SMILES:   c1ccc2c(c1)CC(=O)N2Cc3ccccc3C(=O)[O-]
##########            Long Name:   2-[(2-oxoindolin-1-yl)methyl]benzoate
##########          FlexRecCode: 1
##########               Number:                  420
##########   Ligand Source File: /raid1/people/rgc/Examples/sampl4/screening/ligands/build_1//sampl4-hivint-00000
##########           GlobalRank: 113
##########                 Rank:                    1
##########               Setnum:                    9
##########             Matchnum:                 8500
##########                Cloud:                    1
##########        Electrostatic:           -13.368155
##########        Van der Waals:           -27.141518
##########  Ligand Polar Desolv:            22.512131
########## Ligand Apolar Desolv:            -4.035813
##########      Internal Energy:             0.000000
##########      Receptor Energy: 0.0
########## Receptor Desolvation:             0.000000
########## Receptor Hydrophobic:             0.000000
##########         Total Energy: -22.03
##########        Ligand Charge:            -1.000000
##########            Arbitrary:    +999.9990
##########     heavy atom count:   20
##########           pose count:    1
##########        Ligand Energy:             0.000000
# num electro vdwattr vdwrepu polsolv apolsol rdesolv rhydroe totalscore fullpol fullapo
#   1  -12.40   -2.50    1.32   11.41   -0.15    0.00    0.00      -2.31   30.93   -0.40
#   2    6.70   -1.35    0.40   -5.63   -0.05    0.00    0.00       0.07  -18.36   -0.17
#   3  -10.38   -1.70    1.17    9.70   -0.11    0.00    0.00      -1.31   29.32   -0.33
#   4   -0.60   -0.75    0.09    1.65   -0.10    0.00    0.00       0.27    6.67   -0.41
#   5   -0.06   -0.52    0.05    0.42   -0.08    0.00    0.00      -0.18    2.53   -0.46
#   6    0.84   -0.42    0.02    0.24   -0.07    0.00    0.00       0.62    1.59   -0.47
#   7    1.49   -0.53    0.02    0.18   -0.10    0.00    0.00       1.06    0.89   -0.47
#   8    1.26   -0.75    0.04    0.65   -0.12    0.00    0.00       1.08    2.33   -0.42
#   9    0.02   -0.86    0.06    0.70   -0.13    0.00    0.00      -0.21    2.27   -0.41
#  10    0.51   -1.19    0.27   -2.20   -0.13    0.00    0.00      -2.75   -5.31   -0.32
#  11   -1.63   -2.10    0.47    5.03    0.41    0.00    0.00       2.17   11.04    0.89
#  12   -2.28   -2.45    0.69   -4.30   -0.29    0.00    0.00      -8.62   -8.68   -0.59
#  13    6.33   -1.79    0.29    6.57    0.20    0.00    0.00      11.60   13.63    0.42
#  14    0.10   -2.13    0.82    0.33   -0.18    0.00    0.00      -1.05    0.57   -0.30
#  15   -0.99   -2.87    0.91    0.71   -0.26    0.00    0.00      -2.51    1.16   -0.43
#  16   -0.45   -3.54    1.10    0.09   -0.33    0.00    0.00      -3.13    0.13   -0.47
#  17   -1.52   -3.50    0.78    0.28   -0.33    0.00    0.00      -4.29    0.40   -0.47
#  18   -1.33   -3.48    0.93    0.53   -0.32    0.00    0.00      -3.69    0.77   -0.47
#  19   -2.09   -2.70    0.56    1.63   -0.27    0.00    0.00      -2.87    2.69   -0.45
#  20    1.54   -2.32    0.60   -0.54   -0.37    0.00    0.00      -1.10   -1.01   -0.70
#  21    0.29   -0.08    0.00   -0.22   -0.02    0.00    0.00      -0.02   -2.66   -0.26
#  22   -0.86   -0.06    0.00   -0.14   -0.02    0.00    0.00      -1.08   -2.41   -0.28
#  23   -2.18   -0.12    0.00   -0.22   -0.03    0.00    0.00      -2.55   -2.07   -0.28
#  24   -1.82   -0.20    0.02   -0.48   -0.04    0.00    0.00      -2.53   -2.47   -0.21
#  25   -0.45   -0.71    0.39   -0.72   -0.09    0.00    0.00      -1.57   -1.82   -0.22
#  26    1.35   -0.39    0.12   -0.32   -0.08    0.00    0.00       0.68   -1.01   -0.25
#  27    0.18   -1.26    2.81   -0.62   -0.15    0.00    0.00       0.96   -1.14   -0.28
#  28   -0.81   -1.05    1.16   -0.59   -0.15    0.00    0.00      -1.44   -1.06   -0.28
#  29    0.01   -1.23    1.56   -0.12   -0.18    0.00    0.00       0.04   -0.19   -0.28
#  30    0.86   -1.24    0.82   -0.18   -0.19    0.00    0.00       0.07   -0.26   -0.28
#  31    2.61   -1.27    0.90   -0.72   -0.18    0.00    0.00       1.33   -1.13   -0.28
#  32    2.42   -0.63    0.18   -0.62   -0.12    0.00    0.00       1.23   -1.38   -0.27

@<TRIPOS>MOLECULE
       AVX17257_0       100
   32    34     0     0     0



@<TRIPOS>ATOM
      1 O1          4.6447   -25.9335    -0.7438 O.co2      1          -0.6828
      2 C1          3.8618   -25.3035    -0.0469 C.2        1           0.5203
      3 O2          3.6297   -25.6701     1.0966 O.co2      1          -0.6830
      4 C2          3.2022   -24.0978    -0.5833 C.ar       1          -0.1302
      5 C3          1.9716   -24.2029    -1.2369 C.ar       1          -0.0823
      6 C4          1.3605   -23.0717    -1.7354 C.ar       1          -0.1405
      7 C5          1.9635   -21.8343    -1.5899 C.ar       1          -0.1250
      8 C6          3.1819   -21.7227    -0.9437 C.ar       1          -0.1284
      9 C7          3.8020   -22.8449    -0.4350 C.ar       1          -0.0711
     10 C8          5.1260   -22.7204     0.2738 C.3        1           0.1681
     11 N1          6.2144   -22.8537    -0.6976 N.am       1          -0.5481
     12 C9          6.3886   -22.0301    -1.7450 C.2        1           0.5198
     13 O3          5.6939   -21.0800    -2.0377 O.2        1          -0.4976
     14 C10         7.6153   -22.5110    -2.4906 C.3        1          -0.1132
     15 C11         8.0797   -23.7113    -1.6984 C.ar       1          -0.1523
     16 C12         9.1324   -24.5850    -1.8530 C.ar       1          -0.0686
     17 C13         9.3116   -25.6169    -0.9484 C.ar       1          -0.1507
     18 C14         8.4316   -25.7660     0.1081 C.ar       1          -0.0839
     19 C15         7.3759   -24.8923     0.2651 C.ar       1          -0.1351
     20 C16         7.1926   -23.8469    -0.6382 C.ar       1           0.1588
     21 H1          1.5004   -25.1680    -1.3518 H          1           0.1276
     22 H2          0.4094   -23.1514    -2.2408 H          1           0.1145
     23 H3          1.4807   -20.9518    -1.9828 H          1           0.1116
     24 H4          3.6467   -20.7540    -0.8341 H          1           0.1059
     25 H5          5.1886   -21.7460     0.7583 H          1           0.1096
     26 H6          5.2112   -23.5057     1.0250 H          1           0.1139
     27 H7          7.3539   -22.8027    -3.5079 H          1           0.1192
     28 H8          8.3841   -21.7384    -2.4995 H          1           0.1183
     29 H9          9.8173   -24.4656    -2.6795 H          1           0.1245
     30 H10        10.1363   -26.3040    -1.0672 H          1           0.1250
     31 H11         8.5716   -26.5713     0.8140 H          1           0.1276
     32 H12         6.6928   -25.0155     1.0924 H          1           0.1281
@<TRIPOS>BOND
     1    1    2 1
     2    2    3 2
     3    2    4 1
     4    4    9 ar
     5    4    5 ar
     6    5    6 ar
     7    5   21 1
     8    6    7 ar
     9    6   22 1
    10    7    8 ar
    11    7   23 1
    12    8    9 ar
    13    8   24 1
    14    9   10 1
    15   10   11 1
    16   10   25 1
    17   10   26 1
    18   11   20 1
    19   11   12 am
    20   12   13 2
    21   12   14 1
    22   14   15 1
    23   14   27 1
    24   14   28 1
    25   15   20 ar
    26   15   16 ar
    27   16   17 ar
    28   16   29 1
    29   17   18 ar
    30   17   30 1
    31   18   19 ar
    32   18   31 1
    33   19   20 ar
    34   19   32 1
