AVX17286_0, 3
##########                 Name:           AVX17286_0
##########          Protonation:                  100
##########               SMILES:   c1ccc2c(c1)/C(=C/c3ccc4c(c3C(=O)[O-])OCO4)/C(=[NH+]2)[O-]
##########            Long Name:   5-[(Z)-(2-oxidoindol-1-ium-3-ylidene)methyl]-1,3-benzodioxole-4-carboxylate
##########          FlexRecCode: 1
##########               Number:                  673
##########   Ligand Source File: /raid1/people/rgc/Examples/sampl4/screening/ligands/build_1//sampl4-hivint-00000
##########           GlobalRank: 129
##########                 Rank:                    1
##########               Setnum:                    1
##########             Matchnum:                 7754
##########                Cloud:                    1
##########        Electrostatic:            -6.694571
##########        Van der Waals:           -16.364834
##########  Ligand Polar Desolv:             6.490629
########## Ligand Apolar Desolv:            -1.595257
##########      Internal Energy:             0.000000
##########      Receptor Energy: 0.0
########## Receptor Desolvation:             0.000000
########## Receptor Hydrophobic:             0.000000
##########         Total Energy: -18.16
##########        Ligand Charge:            -1.000000
##########            Arbitrary:    +999.9990
##########     heavy atom count:   23
##########           pose count:    1
##########        Ligand Energy:             0.000000
# num electro vdwattr vdwrepu polsolv apolsol rdesolv rhydroe totalscore fullpol fullapo
#   1   -0.28   -0.12    0.00    1.51   -0.02    0.00    0.00       1.10   27.08   -0.33
#   2    0.30   -0.19    0.00   -1.41   -0.01    0.00    0.00      -1.31  -18.57   -0.17
#   3   -0.31   -0.22    0.01    3.30   -0.06    0.00    0.00       2.73   30.91   -0.55
#   4   -0.14   -0.33    0.01    0.74   -0.05    0.00    0.00       0.23    5.99   -0.41
#   5    0.07   -0.32    0.01   -0.07   -0.04    0.00    0.00      -0.35   -0.51   -0.32
#   6   -0.25   -0.15    0.00    0.67    0.02    0.00    0.00       0.29    9.32    0.33
#   7    0.18   -0.24    0.01   -0.41    0.00    0.00    0.00      -0.46   -3.18    0.02
#   8   -0.13   -0.68    0.08    1.13    0.11    0.00    0.00       0.52    5.26    0.50
#   9    0.01   -0.66    0.04   -0.18   -0.08    0.00    0.00      -0.86   -0.73   -0.33
#  10   -0.09   -1.14    0.10    0.47   -0.18    0.00    0.00      -0.84    1.24   -0.47
#  11   -0.15   -1.30    0.15    0.19   -0.12    0.00    0.00      -1.22    0.52   -0.32
#  12   -0.22   -0.69    0.04    0.40   -0.09    0.00    0.00      -0.55    1.65   -0.37
#  13    0.13   -0.94    0.20   -0.33   -0.09    0.00    0.00      -1.03   -1.27   -0.37
#  14   -0.10   -1.05    0.55    0.72   -0.09    0.00    0.00       0.03    3.51   -0.42
#  15    2.56   -0.76    0.13   -2.06   -0.16    0.00    0.00      -0.29   -9.09   -0.69
#  16   -5.73   -0.68    0.08    3.45    0.31    0.00    0.00      -2.57   14.25    1.29
#  17   -1.19   -0.75    0.07    1.70    0.43    0.00    0.00       0.26    6.59    1.67
#  18    1.81   -0.01    0.00   -0.62    0.10    0.00    0.00       1.28   -3.68    0.60
#  19   -0.67   -0.82    0.13   -0.22   -0.19    0.00    0.00      -1.77   -0.92   -0.77
#  20    2.03   -0.91    0.06    0.14   -0.15    0.00    0.00       1.16    0.43   -0.48
#  21    2.44   -1.48    0.30    0.05   -0.17    0.00    0.00       1.14    0.14   -0.47
#  22    3.14   -1.72    0.35    0.32   -0.19    0.00    0.00       1.89    0.78   -0.47
#  23    0.93   -1.16    0.20    0.45   -0.17    0.00    0.00       0.26    1.25   -0.48
#  24    0.44   -1.10    0.53    0.58   -0.10    0.00    0.00       0.35    2.49   -0.44
#  25    0.11   -0.04    0.00   -0.11   -0.01    0.00    0.00      -0.05   -2.53   -0.28
#  26    0.07   -0.10    0.01   -0.17   -0.03    0.00    0.00      -0.22   -1.72   -0.28
#  27   -0.24   -0.33    0.04   -0.99   -0.10    0.00    0.00      -1.61   -2.87   -0.28
#  28    0.90   -0.56    0.20   -1.12   -0.08    0.00    0.00      -0.67   -3.11   -0.23
#  29   -0.15   -0.19    0.02   -0.80   -0.05    0.00    0.00      -1.17   -3.66   -0.22
#  30   -2.11   -0.23    0.02   -0.09   -0.06    0.00    0.00      -2.46   -0.42   -0.28
#  31   -4.36   -0.44    0.13   -0.03   -0.09    0.00    0.00      -4.79   -0.09   -0.28
#  32   -3.94   -0.68    0.34   -0.36   -0.13    0.00    0.00      -4.77   -0.80   -0.28
#  33   -1.76   -0.21    0.02   -0.38   -0.06    0.00    0.00      -2.39   -1.67   -0.28

@<TRIPOS>MOLECULE
       AVX17286_0       100
   33    36     0     0     0



@<TRIPOS>ATOM
      1 O1         -0.8908   -25.0116    -0.2649 O.co2      1          -0.6792
      2 C1         -1.0351   -25.8422    -1.1517 C.2        1           0.5223
      3 O2         -1.9613   -25.7365    -1.9442 O.co2      1          -0.6603
      4 C2         -0.0915   -26.9647    -1.2685 C.ar       1          -0.0877
      5 C3         -0.3414   -28.1654    -0.6019 C.ar       1           0.0561
      6 O3         -1.3660   -28.5522     0.2066 O.3        1          -0.2761
      7 C4         -1.2970   -29.9895     0.2542 C.3        1           0.2048
      8 O4          0.0944   -30.2748     0.0191 O.3        1          -0.3156
      9 C5          0.5614   -29.2275    -0.7188 C.ar       1           0.0316
     10 C6          1.7032   -29.0907    -1.4950 C.ar       1          -0.1143
     11 C7          1.9642   -27.9096    -2.1596 C.ar       1          -0.0366
     12 C8          1.0741   -26.8373    -2.0629 C.ar       1          -0.0790
     13 C9          1.3478   -25.5867    -2.7733 C.2        1           0.1453
     14 C10         2.0771   -24.5925    -2.1607 C.2        1          -0.2175
     15 C11         2.7926   -24.6568    -0.8739 C.2        1           0.5071
     16 O5          2.8550   -25.7336    -0.0539 O.3        1          -0.5732
     17 N1          3.3574   -23.4965    -0.6588 N.pl3      1          -0.5927
     18 H1          3.8872   -23.2944     0.1283 H          1           0.4149
     19 C12         3.1223   -22.6053    -1.6567 C.ar       1           0.1111
     20 C13         3.5218   -21.2773    -1.8399 C.ar       1          -0.1329
     21 C14         3.1328   -20.5902    -2.9693 C.ar       1          -0.1000
     22 C15         2.3459   -21.1986    -3.9347 C.ar       1          -0.1356
     23 C16         1.9396   -22.5092    -3.7759 C.ar       1          -0.0684
     24 C17         2.3269   -23.2176    -2.6471 C.ar       1          -0.0716
     25 H2         -1.6023   -30.3551     1.2347 H          1           0.1255
     26 H3         -1.9152   -30.4286    -0.5287 H          1           0.0765
     27 H4          2.3946   -29.9161    -1.5795 H          1           0.1293
     28 H5          2.8570   -27.8156    -2.7600 H          1           0.1325
     29 H6          0.9777   -25.4440    -3.7778 H          1           0.1729
     30 H7          4.1347   -20.7902    -1.0960 H          1           0.1236
     31 H8          3.4448   -19.5650    -3.1039 H          1           0.1264
     32 H9          2.0490   -20.6460    -4.8138 H          1           0.1272
     33 H10         1.3261   -22.9818    -4.5287 H          1           0.1334
@<TRIPOS>BOND
     1    1    2 1
     2    2    3 2
     3    2    4 1
     4    4   12 ar
     5    4    5 ar
     6    5    9 ar
     7    5    6 1
     8    6    7 1
     9    7    8 1
    10    7   25 1
    11    7   26 1
    12    8    9 1
    13    9   10 ar
    14   10   11 ar
    15   10   27 1
    16   11   12 ar
    17   11   28 1
    18   12   13 1
    19   13   14 2
    20   13   29 1
    21   14   24 1
    22   14   15 1
    23   15   16 1
    24   15   17 2
    25   17   18 1
    26   17   19 1
    27   19   24 ar
    28   19   20 ar
    29   20   21 ar
    30   20   30 1
    31   21   22 ar
    32   21   31 1
    33   22   23 ar
    34   22   32 1
    35   23   24 ar
    36   23   33 1
