AVX17287_0, 3
##########                 Name:           AVX17287_0
##########          Protonation:                  100
##########               SMILES:   c1ccc2c(c1)c(c[nH]2)Cc3ccc4c(c3C(=O)[O-])OCO4
##########            Long Name:   5-(1H-indol-3-ylmethyl)-1,3-benzodioxole-4-carboxylate
##########          FlexRecCode: 1
##########               Number:                  342
##########   Ligand Source File: /raid1/people/rgc/Examples/sampl4/screening/ligands/build_1//sampl4-hivint-00000
##########           GlobalRank: 39
##########                 Rank:                    1
##########               Setnum:                   25
##########             Matchnum:                15554
##########                Cloud:                    1
##########        Electrostatic:           -20.529854
##########        Van der Waals:           -29.086376
##########  Ligand Polar Desolv:            20.518143
########## Ligand Apolar Desolv:            -3.506999
##########      Internal Energy:             0.000000
##########      Receptor Energy: 0.0
########## Receptor Desolvation:             0.000000
########## Receptor Hydrophobic:             0.000000
##########         Total Energy: -32.61
##########        Ligand Charge:            -1.000000
##########            Arbitrary:    +999.9990
##########     heavy atom count:   22
##########           pose count:    1
##########        Ligand Energy:             0.000000
# num electro vdwattr vdwrepu polsolv apolsol rdesolv rhydroe totalscore fullpol fullapo
#   1  -12.78   -3.09    1.95   12.20   -0.16    0.00    0.00      -1.89   31.25   -0.41
#   2    6.84   -1.52    0.49   -5.98   -0.04    0.00    0.00      -0.21  -19.69   -0.13
#   3   -9.52   -1.51    0.95    8.12   -0.10    0.00    0.00      -2.07   29.63   -0.37
#   4   -0.38   -1.06    0.42    1.38   -0.10    0.00    0.00       0.27    5.67   -0.40
#   5    0.01   -0.91    0.37    0.12   -0.06    0.00    0.00      -0.47    0.64   -0.33
#   6   -0.30   -0.65    0.09    2.29    0.11    0.00    0.00       1.54    9.95    0.48
#   7   -0.51   -0.54    0.05   -0.86    0.01    0.00    0.00      -1.85   -3.11    0.02
#   8    2.56   -0.43    0.02    0.98    0.10    0.00    0.00       3.22    5.02    0.52
#   9   -0.09   -0.59    0.06   -0.06   -0.06    0.00    0.00      -0.74   -0.30   -0.33
#  10    1.43   -0.60    0.03    0.18   -0.11    0.00    0.00       0.93    0.80   -0.47
#  11    1.01   -0.71    0.04    0.26   -0.12    0.00    0.00       0.49    0.98   -0.44
#  12   -0.02   -0.85    0.09    0.40   -0.10    0.00    0.00      -0.47    1.42   -0.36
#  13    0.00   -0.89    0.11   -0.03   -0.09    0.00    0.00      -0.91   -0.07   -0.24
#  14   -0.79   -1.92    0.36    1.87   -0.18    0.00    0.00      -0.65    4.13   -0.39
#  15   -0.25   -2.57    0.86   -0.31   -0.46    0.00    0.00      -2.74   -0.62   -0.94
#  16    0.09   -3.45    1.69    6.47    0.68    0.00    0.00       5.48   11.14    1.17
#  17    0.63   -2.98    1.29   -0.55   -0.48    0.00    0.00      -2.09   -0.89   -0.78
#  18   -0.84   -3.41    1.06    1.19   -0.34    0.00    0.00      -2.34    1.68   -0.48
#  19   -1.09   -3.64    0.88    0.42   -0.33    0.00    0.00      -3.76    0.60   -0.47
#  20   -2.52   -3.76    1.14    0.69   -0.32    0.00    0.00      -4.78    1.00   -0.47
#  21   -1.17   -3.01    0.86    0.62   -0.29    0.00    0.00      -2.99    1.01   -0.47
#  22   -0.99   -2.21    0.45    1.36   -0.24    0.00    0.00      -1.64    2.47   -0.44
#  23   -0.31   -0.29    0.05   -0.67   -0.08    0.00    0.00      -1.30   -2.36   -0.28
#  24   -0.07   -0.15    0.02   -0.25   -0.04    0.00    0.00      -0.50   -1.70   -0.28
#  25   -2.58   -0.14    0.01   -0.29   -0.04    0.00    0.00      -3.04   -2.08   -0.28
#  26   -1.97   -0.17    0.01   -0.36   -0.04    0.00    0.00      -2.53   -2.20   -0.27
#  27   -0.04   -0.44    0.12   -0.88   -0.10    0.00    0.00      -1.33   -2.56   -0.28
#  28    1.07   -0.26    0.03   -0.05   -0.06    0.00    0.00       0.73   -0.18   -0.24
#  29   -1.87   -0.38    0.05   -1.21   -0.09    0.00    0.00      -3.49   -3.24   -0.23
#  30   -1.72   -0.05    0.00   -3.79    0.33    0.00    0.00      -5.23   -6.84    0.60
#  31   -0.05   -0.94    0.73   -0.94   -0.18    0.00    0.00      -1.38   -1.42   -0.28
#  32    0.69   -1.30    0.97   -0.61   -0.20    0.00    0.00      -0.44   -0.88   -0.28
#  33    2.49   -1.45    1.56   -0.57   -0.18    0.00    0.00       1.84   -0.87   -0.28
#  34    2.52   -0.97    0.95   -0.64   -0.13    0.00    0.00       1.74   -1.38   -0.27

@<TRIPOS>MOLECULE
       AVX17287_0       100
   34    37     0     0     0



@<TRIPOS>ATOM
      1 O1          4.6673   -26.1690    -1.2281 O.co2      1          -0.6818
      2 C1          3.7544   -25.6250    -0.6220 C.2        1           0.5374
      3 O2          3.3386   -26.1096     0.4215 O.co2      1          -0.6769
      4 C2          3.1606   -24.3842    -1.1451 C.ar       1          -0.0863
      5 C3          2.0647   -24.4396    -2.0148 C.ar       1           0.0447
      6 O3          1.3582   -25.4782    -2.5338 O.3        1          -0.3001
      7 C4          0.6663   -24.9681    -3.6834 C.3        1           0.2108
      8 O4          0.4703   -23.5938    -3.3179 O.3        1          -0.3177
      9 C5          1.5108   -23.2584    -2.5039 C.ar       1           0.0130
     10 C6          2.0437   -22.0382    -2.1293 C.ar       1          -0.1155
     11 C7          3.1284   -21.9826    -1.2685 C.ar       1          -0.1123
     12 C8          3.6842   -23.1407    -0.7719 C.ar       1          -0.0493
     13 C9          4.8596   -23.0695     0.1686 C.3        1          -0.0004
     14 C10         6.1403   -23.0940    -0.6254 C.2        1          -0.1731
     15 C11         6.5200   -22.2042    -1.5559 C.2        1           0.0925
     16 N1          7.7428   -22.5517    -2.0622 N.pl3      1          -0.5958
     17 C12         8.1911   -23.7028    -1.4541 C.ar       1           0.0883
     18 C13         9.3434   -24.4708    -1.5887 C.ar       1          -0.1308
     19 C14         9.5071   -25.5998    -0.8166 C.ar       1          -0.1117
     20 C15         8.5331   -25.9806     0.0963 C.ar       1          -0.1546
     21 C16         7.3938   -25.2411     0.2448 C.ar       1          -0.0700
     22 C17         7.2097   -24.0897    -0.5235 C.ar       1          -0.0906
     23 H1          1.2833   -25.0498    -4.5782 H          1           0.1234
     24 H2         -0.2885   -25.4754    -3.8212 H          1           0.0764
     25 H3          1.6125   -21.1240    -2.5098 H          1           0.1252
     26 H4          3.5379   -21.0251    -0.9821 H          1           0.1290
     27 H5          4.8077   -22.1464     0.7458 H          1           0.0752
     28 H6          4.8354   -23.9234     0.8455 H          1           0.0899
     29 H7          5.9452   -21.3420    -1.8605 H          1           0.1838
     30 H8          8.2225   -22.0602    -2.7473 H          1           0.4131
     31 H9         10.1068   -24.1829    -2.2964 H          1           0.1137
     32 H10        10.4021   -26.1948    -0.9228 H          1           0.1176
     33 H11         8.6768   -26.8688     0.6938 H          1           0.1158
     34 H12         6.6404   -25.5435     0.9571 H          1           0.1175
@<TRIPOS>BOND
     1    1    2 1
     2    2    3 2
     3    2    4 1
     4    4   12 ar
     5    4    5 ar
     6    5    9 ar
     7    5    6 1
     8    6    7 1
     9    7    8 1
    10    7   23 1
    11    7   24 1
    12    8    9 1
    13    9   10 ar
    14   10   11 ar
    15   10   25 1
    16   11   12 ar
    17   11   26 1
    18   12   13 1
    19   13   14 1
    20   13   27 1
    21   13   28 1
    22   14   22 1
    23   14   15 2
    24   15   16 1
    25   15   29 1
    26   16   17 1
    27   16   30 1
    28   17   22 ar
    29   17   18 ar
    30   18   19 ar
    31   18   31 1
    32   19   20 ar
    33   19   32 1
    34   20   21 ar
    35   20   33 1
    36   21   22 ar
    37   21   34 1
