AVX17389_0, 3
##########                 Name:           AVX17389_0
##########          Protonation:                  100
##########               SMILES:   c1cc(c2c(c1)OCO2)C(=O)NCC(=O)[O-]
##########            Long Name:   2-(1,3-benzodioxole-4-carbonylamino)acetate
##########          FlexRecCode: 1
##########               Number:                  167
##########   Ligand Source File: /raid1/people/rgc/Examples/sampl4/screening/ligands/build_1//sampl4-hivint-00000
##########           GlobalRank: 99
##########                 Rank:                    1
##########               Setnum:                    9
##########             Matchnum:                22662
##########                Cloud:                    1
##########        Electrostatic:           -13.629719
##########        Van der Waals:           -24.506889
##########  Ligand Polar Desolv:            15.015648
########## Ligand Apolar Desolv:            -1.326992
##########      Internal Energy:             0.000000
##########      Receptor Energy: 0.0
########## Receptor Desolvation:             0.000000
########## Receptor Hydrophobic:             0.000000
##########         Total Energy: -24.45
##########        Ligand Charge:            -1.000000
##########            Arbitrary:    +999.9990
##########     heavy atom count:   16
##########           pose count:    1
##########        Ligand Energy:             0.000000
# num electro vdwattr vdwrepu polsolv apolsol rdesolv rhydroe totalscore fullpol fullapo
#   1   -4.50   -0.40    0.02    3.95   -0.07    0.00    0.00      -0.99   24.09   -0.41
#   2    4.04   -0.77    0.12   -3.40   -0.04    0.00    0.00      -0.03  -15.23   -0.17
#   3   -3.13   -1.04    0.44    5.38   -0.08    0.00    0.00       1.56   27.98   -0.43
#   4    0.71   -1.11    0.34   -0.90   -0.17    0.00    0.00      -1.14   -2.53   -0.47
#   5   -9.21   -1.34    0.22    5.90    0.85    0.00    0.00      -3.58   16.02    2.31
#   6    8.72   -2.20    0.60   -5.64   -0.30    0.00    0.00       1.19  -12.11   -0.65
#   7  -11.64   -4.54    3.22    8.42   -0.02    0.00    0.00      -4.56   15.91   -0.03
#   8   -1.10   -1.84    0.27    1.41   -0.19    0.00    0.00      -1.46    2.99   -0.41
#   9    1.11   -2.13    0.32   -0.37   -0.18    0.00    0.00      -1.26   -0.65   -0.32
#  10   -4.48   -2.31    0.38    3.87    0.23    0.00    0.00      -2.32    5.92    0.35
#  11    2.20   -2.11    0.36   -1.25    0.01    0.00    0.00      -0.79   -1.82    0.02
#  12   -2.22   -3.10    0.90    2.24    0.36    0.00    0.00      -1.82    3.20    0.52
#  13    0.11   -2.80    0.83   -0.03   -0.20    0.00    0.00      -2.09   -0.05   -0.33
#  14    0.00   -3.12    1.22    0.08   -0.26    0.00    0.00      -2.08    0.15   -0.47
#  15    0.55   -2.62    0.88    0.19   -0.23    0.00    0.00      -1.23    0.38   -0.47
#  16   -0.01   -1.98    0.47    0.40   -0.19    0.00    0.00      -1.30    0.94   -0.44
#  17    1.03   -0.58    0.43   -0.80   -0.11    0.00    0.00      -0.04   -1.99   -0.28
#  18    1.16   -0.78    1.43   -0.71   -0.10    0.00    0.00       1.01   -2.03   -0.28
#  19    3.72   -0.01    0.00   -1.36    0.06    0.00    0.00       2.40   -9.02    0.37
#  20    1.35   -0.71    0.20   -0.73   -0.18    0.00    0.00      -0.07   -1.16   -0.28
#  21    0.82   -1.01    0.40   -0.63   -0.19    0.00    0.00      -0.61   -0.93   -0.28
#  22   -0.42   -0.65    0.23   -0.33   -0.15    0.00    0.00      -1.32   -0.60   -0.28
#  23   -1.80   -0.44    0.08   -0.21   -0.12    0.00    0.00      -2.48   -0.50   -0.28
#  24   -0.64   -0.30    0.04   -0.47   -0.06    0.00    0.00      -1.43   -1.73   -0.22

@<TRIPOS>MOLECULE
       AVX17389_0       100
   24    25     0     0     0



@<TRIPOS>ATOM
      1 O1          1.6976   -26.1654     0.7891 O.co2      1          -0.6923
      2 C1          1.9665   -25.4266     1.7210 C.2        1           0.4913
      3 O2          1.0718   -24.8789     2.3424 O.co2      1          -0.6870
      4 C2          3.4043   -25.1950     2.1084 C.3        1           0.0506
      5 N1          4.1278   -24.6131     0.9753 N.am       1          -0.6918
      6 C3          5.4380   -24.3192     1.0915 C.2        1           0.5422
      7 O3          6.0194   -24.5370     2.1369 O.2        1          -0.5423
      8 C4          6.1666   -23.7332    -0.0498 C.ar       1          -0.1102
      9 C5          7.2618   -24.4036    -0.6039 C.ar       1           0.0931
     10 O4          7.8629   -25.5847    -0.3003 O.3        1          -0.2807
     11 C6          9.1733   -25.5384    -0.8848 C.3        1           0.2068
     12 O5          8.9540   -24.6898    -2.0217 O.3        1          -0.3101
     13 C7          7.9430   -23.8414    -1.6813 C.ar       1           0.0153
     14 C8          7.5349   -22.6247    -2.1981 C.ar       1          -0.0815
     15 C9          6.4505   -21.9602    -1.6486 C.ar       1          -0.1182
     16 C10         5.7627   -22.5074    -0.5875 C.ar       1          -0.0756
     17 H1          3.4465   -24.5112     2.9562 H          1           0.0679
     18 H2          3.8637   -26.1442     2.3842 H          1           0.0679
     19 H3          3.6639   -24.4394     0.1412 H          1           0.4071
     20 H4          9.8918   -25.0921    -0.1973 H          1           0.1320
     21 H5          9.4972   -26.5316    -1.1959 H          1           0.0845
     22 H6          8.0644   -22.1907    -3.0334 H          1           0.1376
     23 H7          6.1391   -21.0107    -2.0581 H          1           0.1449
     24 H8          4.9150   -21.9866    -0.1673 H          1           0.1484
@<TRIPOS>BOND
     1    1    2 1
     2    2    3 2
     3    2    4 1
     4    4    5 1
     5    4   17 1
     6    4   18 1
     7    5    6 am
     8    5   19 1
     9    6    7 2
    10    6    8 1
    11    8   16 ar
    12    8    9 ar
    13    9   13 ar
    14    9   10 1
    15   10   11 1
    16   11   12 1
    17   11   20 1
    18   11   21 1
    19   12   13 1
    20   13   14 ar
    21   14   15 ar
    22   14   22 1
    23   15   16 ar
    24   15   23 1
    25   16   24 1
