AVX101118_1, 3
##########                 Name:          AVX101118_0
##########          Protonation:                   78
##########               SMILES:   C[NH+](Cc1ccccc1C(=O)NCC2CCCCC2)Cc3ccc4c(c3C(=O)[O-])OCCO4
##########            Long Name:   nyl]methyl-methyl-ammonio]methyl]-2,3-dihydro-1,4-benzodioxine-5-carboxylate
##########          FlexRecCode: 1
##########               Number:                   29
##########   Ligand Source File: /raid1/people/rgc/Examples/sampl4/screening/ligands/build_1//sampl4-hivint-00000
##########           GlobalRank: 52
##########                 Rank:                    1
##########               Setnum:                    2
##########             Matchnum:                 9900
##########                Cloud:                    1
##########        Electrostatic:           -21.651773
##########        Van der Waals:           -21.074072
##########  Ligand Polar Desolv:            16.343298
########## Ligand Apolar Desolv:            -3.561968
##########      Internal Energy:             0.000000
##########      Receptor Energy: 0.0
########## Receptor Desolvation:             0.000000
########## Receptor Hydrophobic:             0.000000
##########         Total Energy: -29.94
##########        Ligand Charge:             0.000000
##########            Arbitrary:    +999.9990
##########     heavy atom count:   33
##########           pose count:    1
##########        Ligand Energy:             0.000000
# num electro vdwattr vdwrepu polsolv apolsol rdesolv rhydroe totalscore fullpol fullapo
#   1    0.84   -0.87    0.22   -0.36   -0.14    0.00    0.00      -0.30   -1.05   -0.41
#   2    4.57   -0.54    0.03   -0.81    0.04    0.00    0.00       3.28   -3.23    0.16
#   3   -2.28   -0.01    0.00    0.38    0.03    0.00    0.00      -1.88    4.37    0.32
#   4   -0.68   -0.43    0.02    0.09   -0.08    0.00    0.00      -1.07    0.36   -0.30
#   5    0.89   -0.57    0.04   -0.17   -0.06    0.00    0.00       0.12   -0.84   -0.30
#   6    1.06   -1.29    0.36   -0.33   -0.11    0.00    0.00      -0.30   -1.16   -0.40
#   7    0.16   -2.77    4.67   -0.30   -0.13    0.00    0.00       1.63   -1.12   -0.47
#   8   -0.06   -1.70    2.16   -0.25   -0.09    0.00    0.00       0.07   -1.30   -0.47
#   9    0.03   -0.48    0.09   -0.12   -0.06    0.00    0.00      -0.53   -0.92   -0.44
#  10    0.57   -0.36    0.02   -0.17   -0.05    0.00    0.00       0.01   -1.31   -0.40
#  11   -2.95   -0.24    0.00    0.33   -0.06    0.00    0.00      -2.91    3.54   -0.63
#  12    3.96   -0.27    0.00   -0.22    0.04    0.00    0.00       3.51   -1.76    0.29
#  13    2.00   -0.16    0.00   -0.36    0.15    0.00    0.00       1.64   -5.17    2.20
#  14   -0.25   -0.13    0.00    0.05   -0.03    0.00    0.00      -0.36    0.60   -0.38
#  15    0.41   -0.21    0.01   -0.05   -0.02    0.00    0.00       0.14   -0.43   -0.15
#  16    0.07   -0.15    0.01   -0.05   -0.02    0.00    0.00      -0.14   -0.59   -0.22
#  17    0.11   -0.22    0.02   -0.07   -0.03    0.00    0.00      -0.19   -0.54   -0.25
#  18    0.05   -0.15    0.00   -0.03   -0.02    0.00    0.00      -0.14   -0.33   -0.25
#  19    0.06   -0.31    0.02   -0.05   -0.04    0.00    0.00      -0.32   -0.32   -0.25
#  20    0.12   -0.32    0.03   -0.06   -0.03    0.00    0.00      -0.25   -0.36   -0.22
#  21   -0.91   -0.68    0.06    0.01   -0.09    0.00    0.00      -1.61    0.04   -0.26
#  22    0.44   -1.37    0.17    0.07   -0.15    0.00    0.00      -0.85    0.17   -0.39
#  23    0.89   -2.20    0.69   -0.20   -0.16    0.00    0.00      -0.98   -0.43   -0.34
#  24   -0.15   -3.16    1.86   -0.06   -0.24    0.00    0.00      -1.76   -0.12   -0.46
#  25    0.32   -2.37    0.56   -0.04   -0.16    0.00    0.00      -1.70   -0.08   -0.30
#  26   -3.15   -2.21    0.34    0.90    0.44    0.00    0.00      -3.68    1.39    0.68
#  27    0.29   -2.08    0.45   -0.07   -0.09    0.00    0.00      -1.51   -0.10   -0.14
#  28    0.20   -2.90    1.30    0.04   -0.09    0.00    0.00      -1.46    0.06   -0.14
#  29   -4.53   -2.36    0.68    2.90    0.14    0.00    0.00      -3.16    5.52    0.27
#  30    1.11   -1.76    0.21   -0.28   -0.14    0.00    0.00      -0.86   -0.59   -0.30
#  31   -0.52   -1.40    0.16    1.15   -0.17    0.00    0.00      -0.78    2.83   -0.41
#  32    4.15   -1.62    0.43   -4.27   -0.07    0.00    0.00      -1.38  -11.01   -0.17
#  33   -5.44   -4.45    5.78    7.11   -0.15    0.00    0.00       2.84   15.53   -0.33
#  34   -5.95   -0.92    0.16    6.73   -0.18    0.00    0.00      -0.16   22.17   -0.59
#  35   -2.68   -0.33    0.10    0.46   -0.06    0.00    0.00      -2.51    1.47   -0.18
#  36   -0.69   -0.67    0.93    0.93   -0.07    0.00    0.00       0.43    2.97   -0.22
#  37   -1.64   -0.20    0.02    0.39   -0.05    0.00    0.00      -1.48    1.99   -0.28
#  38   -4.40   -0.20    0.02    0.10   -0.03    0.00    0.00      -4.51    0.60   -0.20
#  39   -2.63   -0.13    0.01    0.26   -0.04    0.00    0.00      -2.53    1.94   -0.27
#  40   -3.06   -0.39    0.13    0.72   -0.07    0.00    0.00      -2.68    2.72   -0.28
#  41   -0.34   -0.78    0.85    0.67   -0.09    0.00    0.00       0.31    2.13   -0.28
#  42    0.12   -0.28    0.14    0.30   -0.04    0.00    0.00       0.23    1.99   -0.28
#  43    0.08   -0.04    0.00    0.08   -0.01    0.00    0.00       0.11    2.05   -0.22
#  44   -0.49    0.00    0.00    0.10    0.01    0.00    0.00      -0.38    4.41    0.39
#  45   -0.16   -0.05    0.00    0.01   -0.01    0.00    0.00      -0.22    0.20   -0.28
#  46    0.00   -0.03    0.00    0.00   -0.01    0.00    0.00      -0.03    0.03   -0.28
#  47   -0.83   -0.14    0.03    0.08   -0.03    0.00    0.00      -0.89    0.75   -0.28
#  48    0.00   -0.02    0.00    0.00   -0.01    0.00    0.00      -0.02    0.11   -0.28
#  49   -0.02   -0.06    0.01    0.05   -0.02    0.00    0.00      -0.04    0.70   -0.24
#  50   -0.02   -0.04    0.00    0.01   -0.01    0.00    0.00      -0.06    0.24   -0.28
#  51   -0.35   -0.16    0.03    0.07   -0.04    0.00    0.00      -0.46    0.43   -0.28
#  52    0.00   -0.02    0.00    0.00   -0.01    0.00    0.00      -0.03    0.04   -0.28
#  53   -0.03   -0.04    0.00    0.00   -0.01    0.00    0.00      -0.08    0.13   -0.28
#  54    0.00   -0.09    0.00    0.01   -0.02    0.00    0.00      -0.10    0.07   -0.28
#  55   -0.10   -0.22    0.07    0.04   -0.04    0.00    0.00      -0.25    0.27   -0.28
#  56   -0.08   -0.17    0.04    0.03   -0.04    0.00    0.00      -0.22    0.19   -0.28
#  57    0.04   -0.09    0.01    0.00   -0.03    0.00    0.00      -0.06    0.03   -0.28
#  58   -3.58   -0.23    0.02   -0.06   -0.05    0.00    0.00      -3.91   -0.30   -0.23
#  59   -1.76   -0.27    0.04   -0.11   -0.07    0.00    0.00      -2.16   -0.42   -0.26
#  60   -1.25   -0.56    0.46    0.99   -0.07    0.00    0.00      -0.43    2.41   -0.18
#  61    0.13   -0.78    0.67    0.54   -0.14    0.00    0.00       0.40    1.05   -0.28
#  62    2.30   -0.92    0.52    0.18   -0.16    0.00    0.00       1.93    0.32   -0.28
#  63    0.97   -0.72    0.14   -0.17   -0.19    0.00    0.00       0.03   -0.25   -0.28
#  64    1.78   -2.33    4.45   -0.34   -0.17    0.00    0.00       3.40   -0.55   -0.28
#  65    1.60   -1.21    1.54   -0.46   -0.16    0.00    0.00       1.30   -0.81   -0.28

@<TRIPOS>MOLECULE
      AVX101118_0        78
   65    68     0     0     0



@<TRIPOS>ATOM
      1 C1          2.9974   -22.0101    -3.1330 C.3        1          -0.0639
      2 N1          2.6615   -21.8021    -1.7180 N.4        1          -0.3784
      3 H1          2.4250   -22.6872    -1.2950 H          1           0.4146
      4 C2          1.5156   -20.8887    -1.6159 C.3        1           0.0370
      5 C3          0.8647   -21.0485    -0.2662 C.ar       1          -0.0859
      6 C4          1.2767   -20.2712     0.7968 C.ar       1          -0.0990
      7 C5          0.6802   -20.4168     2.0364 C.ar       1          -0.0864
      8 C6         -0.3328   -21.3416     2.2192 C.ar       1          -0.1006
      9 C7         -0.7545   -22.1247     1.1649 C.ar       1          -0.0812
     10 C8         -0.1603   -21.9792    -0.0899 C.ar       1          -0.1221
     11 C9         -0.6112   -22.8110    -1.2259 C.2        1           0.5528
     12 O1          0.1713   -23.1148    -2.1051 O.2        1          -0.5447
     13 N2         -1.8899   -23.2327    -1.2867 N.am       1          -0.7102
     14 C10        -2.3367   -24.0571    -2.4122 C.3        1           0.1178
     15 C11        -2.8504   -23.1529    -3.5344 C.3        1          -0.0993
     16 C12        -4.0224   -22.3155    -3.0187 C.3        1          -0.1158
     17 C13        -4.5361   -21.4114    -4.1410 C.3        1          -0.1202
     18 C14        -5.0027   -22.2724    -5.3163 C.3        1          -0.1229
     19 C15        -3.8306   -23.1097    -5.8322 C.3        1          -0.1194
     20 C16        -3.3170   -24.0140    -4.7099 C.3        1          -0.1130
     21 C17         3.8160   -21.2194    -1.0213 C.3        1           0.0673
     22 C18         4.9915   -22.1566    -1.1260 C.ar       1          -0.0905
     23 C19         5.8703   -22.0444    -2.1804 C.ar       1          -0.1640
     24 C20         6.9538   -22.9014    -2.2834 C.ar       1          -0.1011
     25 C21         7.1665   -23.8809    -1.3269 C.ar       1           0.0390
     26 O2          8.2383   -24.7122    -1.4410 O.3        1          -0.3085
     27 C22         8.1987   -25.9205    -0.6750 C.3        1           0.0191
     28 C23         7.7891   -25.5450     0.7540 C.3        1           0.0110
     29 O3          6.4825   -24.9650     0.6861 O.3        1          -0.2524
     30 C24         6.2881   -24.0081    -0.2570 C.ar       1           0.1031
     31 C25         5.1940   -23.1377    -0.1491 C.ar       1          -0.1131
     32 C26         4.2611   -23.2584     0.9829 C.2        1           0.5208
     33 O4          4.4641   -22.6298     2.0127 O.co2      1          -0.6891
     34 O5          3.2827   -23.9874     0.8941 O.co2      1          -0.6418
     35 H2          3.2530   -21.0542    -3.5900 H          1           0.1292
     36 H3          3.8477   -22.6879    -3.2087 H          1           0.1112
     37 H4          2.1407   -22.4425    -3.6499 H          1           0.1227
     38 H5          1.8586   -19.8609    -1.7344 H          1           0.1595
     39 H6          0.7933   -21.1232    -2.3977 H          1           0.1322
     40 H7          2.0671   -19.5478     0.6607 H          1           0.1424
     41 H8          1.0066   -19.8062     2.8652 H          1           0.1401
     42 H9         -0.7940   -21.4509     3.1897 H          1           0.1397
     43 H10        -1.5452   -22.8461     1.3088 H          1           0.1339
     44 H11        -2.5143   -22.9903    -0.5850 H          1           0.4031
     45 H12        -1.5017   -24.6536    -2.7796 H          1           0.0769
     46 H13        -3.1382   -24.7182    -2.0826 H          1           0.0775
     47 H14        -2.0488   -22.4918    -3.8640 H          1           0.0781
     48 H15        -4.8240   -22.9766    -2.6891 H          1           0.0672
     49 H16        -3.6899   -21.7021    -2.1813 H          1           0.0578
     50 H17        -5.3711   -20.8148    -3.7735 H          1           0.0636
     51 H18        -3.7345   -20.7502    -4.4704 H          1           0.0618
     52 H19        -5.8042   -22.9335    -4.9868 H          1           0.0631
     53 H20        -5.3686   -21.6282    -6.1159 H          1           0.0630
     54 H21        -4.1631   -23.7232    -6.6696 H          1           0.0659
     55 H22        -3.0291   -22.4486    -6.1616 H          1           0.0623
     56 H23        -2.4819   -24.6105    -5.0773 H          1           0.0673
     57 H24        -4.1185   -24.6750    -4.3804 H          1           0.0680
     58 H25         4.0717   -20.2634    -1.4783 H          1           0.1592
     59 H26         3.5667   -21.0652     0.0286 H          1           0.1450
     60 H27         5.7137   -21.2842    -2.9313 H          1           0.1136
     61 H28         7.6369   -22.8056    -3.1145 H          1           0.1350
     62 H29         7.4662   -26.6056    -1.1021 H          1           0.1227
     63 H30         9.1842   -26.3863    -0.6673 H          1           0.0782
     64 H31         7.7658   -26.4376     1.3792 H          1           0.0765
     65 H32         8.4944   -24.8217     1.1633 H          1           0.1245
@<TRIPOS>BOND
     1    1    2 1
     2    1   35 1
     3    1   36 1
     4    1   37 1
     5    2    3 1
     6    2    4 1
     7    2   21 1
     8    4    5 1
     9    4   38 1
    10    4   39 1
    11    5   10 ar
    12    5    6 ar
    13    6    7 ar
    14    6   40 1
    15    7    8 ar
    16    7   41 1
    17    8    9 ar
    18    8   42 1
    19    9   10 ar
    20    9   43 1
    21   10   11 1
    22   11   12 2
    23   11   13 am
    24   13   14 1
    25   13   44 1
    26   14   15 1
    27   14   45 1
    28   14   46 1
    29   15   20 1
    30   15   16 1
    31   15   47 1
    32   16   17 1
    33   16   48 1
    34   16   49 1
    35   17   18 1
    36   17   50 1
    37   17   51 1
    38   18   19 1
    39   18   52 1
    40   18   53 1
    41   19   20 1
    42   19   54 1
    43   19   55 1
    44   20   56 1
    45   20   57 1
    46   21   22 1
    47   21   58 1
    48   21   59 1
    49   22   31 ar
    50   22   23 ar
    51   23   24 ar
    52   23   60 1
    53   24   25 ar
    54   24   61 1
    55   25   30 ar
    56   25   26 1
    57   26   27 1
    58   27   28 1
    59   27   62 1
    60   27   63 1
    61   28   29 1
    62   28   64 1
    63   28   65 1
    64   29   30 1
    65   30   31 ar
    66   31   32 1
    67   32   33 1
    68   32   34 2
