AVX17377_0, 3
##########                 Name:           AVX17377_0
##########          Protonation:                  100
##########               SMILES:   c1ccc2c(c1)CC(=O)N2Cc3ccc4c(c3C(=O)[O-])OCO4
##########            Long Name:   5-[(2-oxoindolin-1-yl)methyl]-1,3-benzodioxole-4-carboxylate
##########          FlexRecCode: 1
##########               Number:                  234
##########   Ligand Source File: /raid1/people/rgc/Examples/sampl4/screening/ligands/build_1//sampl4-hivint-00000
##########           GlobalRank: 100
##########                 Rank:                    1
##########               Setnum:                    8
##########             Matchnum:                 3850
##########                Cloud:                    1
##########        Electrostatic:           -18.297726
##########        Van der Waals:           -28.631023
##########  Ligand Polar Desolv:            25.203590
########## Ligand Apolar Desolv:            -2.353346
##########      Internal Energy:             0.000000
##########      Receptor Energy: 0.0
########## Receptor Desolvation:             0.000000
########## Receptor Hydrophobic:             0.000000
##########         Total Energy: -24.08
##########        Ligand Charge:            -1.000000
##########            Arbitrary:    +999.9990
##########     heavy atom count:   23
##########           pose count:    1
##########        Ligand Energy:             0.000000
# num electro vdwattr vdwrepu polsolv apolsol rdesolv rhydroe totalscore fullpol fullapo
#   1  -12.79   -2.65    0.91   13.73   -0.15    0.00    0.00      -0.95   28.40   -0.32
#   2    7.91   -1.81    0.48   -8.23   -0.08    0.00    0.00      -1.73  -18.64   -0.17
#   3  -10.58   -1.75    0.92   10.91   -0.20    0.00    0.00      -0.69   31.08   -0.56
#   4   -1.14   -1.66    0.20    2.94   -0.19    0.00    0.00       0.16    6.44   -0.41
#   5    0.93   -2.16    0.32   -0.57   -0.18    0.00    0.00      -1.66   -0.98   -0.32
#   6   -4.34   -2.30    0.36    5.98    0.22    0.00    0.00      -0.08    9.15    0.34
#   7    2.10   -2.16    0.39   -2.01    0.01    0.00    0.00      -1.66   -2.92    0.02
#   8   -1.96   -3.07    0.85    3.38    0.37    0.00    0.00      -0.43    4.79    0.52
#   9    0.02   -2.88    0.88   -0.23   -0.20    0.00    0.00      -2.41   -0.38   -0.33
#  10    0.01   -3.20    1.31    0.34   -0.27    0.00    0.00      -1.81    0.59   -0.47
#  11    0.53   -2.45    0.66    0.87   -0.21    0.00    0.00      -0.59    1.75   -0.42
#  12   -0.02   -1.65    0.25    0.67   -0.17    0.00    0.00      -0.92    1.60   -0.41
#  13   -0.85   -0.77    0.07   -1.83   -0.11    0.00    0.00      -3.49   -5.13   -0.32
#  14    3.05   -0.75    0.07    2.66    0.24    0.00    0.00       5.26   10.25    0.91
#  15   -5.14   -1.32    0.50   -2.41   -0.18    0.00    0.00      -8.55   -8.06   -0.59
#  16    6.15   -2.18    1.24    4.95    0.16    0.00    0.00      10.33   12.76    0.42
#  17    1.11   -0.63    0.14    0.13   -0.08    0.00    0.00       0.67    0.50   -0.30
#  18    0.72   -0.44    0.03    0.15   -0.06    0.00    0.00       0.39    1.01   -0.43
#  19    0.18   -0.27    0.00    0.01   -0.05    0.00    0.00      -0.12    0.11   -0.47
#  20   -0.01   -0.19    0.00    0.03   -0.04    0.00    0.00      -0.20    0.37   -0.47
#  21   -0.19   -0.37    0.04    0.09   -0.06    0.00    0.00      -0.49    0.74   -0.47
#  22   -0.47   -0.67    0.17    0.43   -0.08    0.00    0.00      -0.62    2.49   -0.45
#  23   -0.31   -0.49    0.03   -0.17   -0.12    0.00    0.00      -1.06   -0.97   -0.70
#  24    1.34   -0.72    0.22   -1.46   -0.18    0.00    0.00      -0.80   -2.31   -0.28
#  25    0.67   -1.10    0.54   -1.14   -0.19    0.00    0.00      -1.22   -1.69   -0.28
#  26   -0.49   -0.69    0.30   -1.38   -0.16    0.00    0.00      -2.42   -2.43   -0.28
#  27   -1.45   -0.42    0.07   -1.15   -0.09    0.00    0.00      -3.03   -2.74   -0.21
#  28    0.05   -0.26    0.03   -0.53   -0.06    0.00    0.00      -0.76   -2.01   -0.22
#  29   -1.63   -0.32    0.06   -0.31   -0.06    0.00    0.00      -2.27   -1.23   -0.25
#  30   -2.11   -0.17    0.02   -0.17   -0.05    0.00    0.00      -2.49   -0.98   -0.28
#  31   -0.73   -0.36    0.24   -0.20   -0.06    0.00    0.00      -1.11   -0.89   -0.28
#  32   -0.42   -0.05    0.00    0.00   -0.01    0.00    0.00      -0.49   -0.10   -0.28
#  33    0.05   -0.02    0.00   -0.01   -0.01    0.00    0.00       0.01   -0.22   -0.28
#  34    0.30   -0.09    0.01   -0.08   -0.02    0.00    0.00       0.13   -1.04   -0.28
#  35    1.20   -0.39    0.48   -0.23   -0.05    0.00    0.00       1.01   -1.36   -0.27

@<TRIPOS>MOLECULE
       AVX17377_0       100
   35    38     0     0     0



@<TRIPOS>ATOM
      1 O1          5.3666   -24.4284     1.7737 O.co2      1          -0.6814
      2 C1          5.2078   -24.6343     0.5784 C.2        1           0.5222
      3 O2          4.3486   -25.4197     0.2017 O.co2      1          -0.6669
      4 C2          6.0463   -23.9329    -0.4069 C.ar       1          -0.1169
      5 C3          7.2503   -24.5017    -0.8395 C.ar       1           0.0796
      6 O3          7.8790   -25.6652    -0.5262 O.3        1          -0.2761
      7 C4          9.2519   -25.5054    -0.9137 C.3        1           0.2050
      8 O4          9.1378   -24.5933    -2.0164 O.3        1          -0.3173
      9 C5          8.0362   -23.8285    -1.7726 C.ar       1           0.0027
     10 C6          7.6250   -22.6039    -2.2674 C.ar       1          -0.0989
     11 C7          6.4333   -22.0404    -1.8395 C.ar       1          -0.1229
     12 C8          5.6425   -22.6954    -0.9219 C.ar       1          -0.0587
     13 C9          4.3453   -22.0772    -0.4676 C.3        1           0.1724
     14 N1          3.2593   -22.5205    -1.3452 N.am       1          -0.5493
     15 C10         3.2283   -22.2972    -2.6699 C.2        1           0.5197
     16 O5          4.0676   -21.7129    -3.3219 O.2        1          -0.4955
     17 C11         1.9486   -22.9119    -3.1955 C.3        1          -0.1133
     18 C12         1.2918   -23.4995    -1.9675 C.ar       1          -0.1511
     19 C13         0.1150   -24.1871    -1.7733 C.ar       1          -0.0686
     20 C14        -0.2352   -24.6112    -0.5034 C.ar       1          -0.1498
     21 C15         0.5995   -24.3423     0.5662 C.ar       1          -0.0840
     22 C16         1.7789   -23.6531     0.3744 C.ar       1          -0.1346
     23 C17         2.1414   -23.2283    -0.9025 C.ar       1           0.1577
     24 H1          9.8375   -25.0685    -0.1048 H          1           0.1248
     25 H2          9.6797   -26.4550    -1.2354 H          1           0.0764
     26 H3          8.2359   -22.0842    -2.9906 H          1           0.1265
     27 H4          6.1211   -21.0836    -2.2312 H          1           0.1217
     28 H5          4.1344   -22.3865     0.5562 H          1           0.1149
     29 H6          4.4261   -20.9910    -0.5097 H          1           0.1169
     30 H7          1.3118   -22.1471    -3.6400 H          1           0.1196
     31 H8          2.1706   -23.6945    -3.9211 H          1           0.1190
     32 H9         -0.5344   -24.3949    -2.6109 H          1           0.1247
     33 H10        -1.1577   -25.1505    -0.3478 H          1           0.1250
     34 H11         0.3261   -24.6734     1.5571 H          1           0.1276
     35 H12         2.4251   -23.4466     1.2147 H          1           0.1288
@<TRIPOS>BOND
     1    1    2 1
     2    2    3 2
     3    2    4 1
     4    4   12 ar
     5    4    5 ar
     6    5    9 ar
     7    5    6 1
     8    6    7 1
     9    7    8 1
    10    7   24 1
    11    7   25 1
    12    8    9 1
    13    9   10 ar
    14   10   11 ar
    15   10   26 1
    16   11   12 ar
    17   11   27 1
    18   12   13 1
    19   13   14 1
    20   13   28 1
    21   13   29 1
    22   14   23 1
    23   14   15 am
    24   15   16 2
    25   15   17 1
    26   17   18 1
    27   17   30 1
    28   17   31 1
    29   18   23 ar
    30   18   19 ar
    31   19   20 ar
    32   19   32 1
    33   20   21 ar
    34   20   33 1
    35   21   22 ar
    36   21   34 1
    37   22   23 ar
    38   22   35 1
