AVX17557_3, 3
##########                 Name:           AVX17557_0
##########          Protonation:                  100
##########               SMILES:   c1ccc2c(c1)C[C@@H]([C@@H]2Cc3ccc4c(c3C(=O)[O-])OCO4)NC(=O)CCCCC[NH3+]
##########            Long Name:   -(6-azaniumylhexanoylamino)indan-1-yl]methyl]-1,3-benzodioxole-4-carboxylate
##########          FlexRecCode: 1
##########               Number:                  592
##########   Ligand Source File: /raid1/people/rgc/Examples/sampl4/screening/ligands/build_1//sampl4-hivint-00000
##########           GlobalRank: 80
##########                 Rank:                    1
##########               Setnum:                    3
##########             Matchnum:                15135
##########                Cloud:                    1
##########        Electrostatic:           -21.162617
##########        Van der Waals:           -19.740395
##########  Ligand Polar Desolv:            15.543633
########## Ligand Apolar Desolv:            -1.324128
##########      Internal Energy:             0.000000
##########      Receptor Energy: 0.0
########## Receptor Desolvation:             0.000000
########## Receptor Hydrophobic:             0.000000
##########         Total Energy: -26.68
##########        Ligand Charge:             0.000000
##########            Arbitrary:    +999.9990
##########     heavy atom count:   31
##########           pose count:    1
##########        Ligand Energy:             0.000000
# num electro vdwattr vdwrepu polsolv apolsol rdesolv rhydroe totalscore fullpol fullapo
#   1   17.82   -1.08    0.26   -6.85    0.28    0.00    0.00      10.43  -20.69    0.86
#   2  -14.91   -0.04    0.00    4.72    0.17    0.00    0.00     -10.05   16.71    0.60
#   3  -15.04   -0.03    0.00    4.64    0.17    0.00    0.00     -10.25   15.49    0.58
#   4   -8.67   -0.01    0.00    2.36    0.09    0.00    0.00      -6.24   15.62    0.58
#   5    0.21   -0.55    0.03    0.24   -0.15    0.00    0.00      -0.23    0.78   -0.49
#   6    2.31   -0.98    0.20   -1.10   -0.08    0.00    0.00       0.36   -3.47   -0.24
#   7    0.87   -1.24    0.32   -0.73   -0.08    0.00    0.00      -0.86   -1.95   -0.22
#   8   -0.12   -0.59    0.04   -0.33   -0.06    0.00    0.00      -1.05   -1.03   -0.19
#   9   -0.76   -0.56    0.12   -0.27   -0.06    0.00    0.00      -1.53   -1.12   -0.25
#  10    3.33   -0.57    0.04    0.04   -0.11    0.00    0.00       2.71    0.17   -0.54
#  11   -5.98   -0.97    0.14    0.89    0.10    0.00    0.00      -5.82    3.21    0.37
#  12   -2.67   -0.31    0.01    0.17    0.15    0.00    0.00      -2.65    1.29    1.10
#  13    0.51   -0.22    0.00   -0.20   -0.04    0.00    0.00       0.05   -1.51   -0.28
#  14   -0.29   -0.23    0.01    0.06   -0.03    0.00    0.00      -0.48    0.46   -0.27
#  15   -0.12   -0.16    0.00    0.04   -0.03    0.00    0.00      -0.26    0.75   -0.43
#  16   -0.12   -0.11    0.00    0.02   -0.02    0.00    0.00      -0.22    0.42   -0.47
#  17   -0.11   -0.05    0.00    0.01   -0.01    0.00    0.00      -0.16    0.44   -0.47
#  18   -0.10   -0.05    0.00    0.03   -0.01    0.00    0.00      -0.13    1.03   -0.47
#  19   -0.07   -0.09    0.00    0.06   -0.02    0.00    0.00      -0.11    1.75   -0.45
#  20   -0.08   -0.14    0.00    0.07   -0.02    0.00    0.00      -0.16    1.37   -0.39
#  21   -0.05   -0.18    0.00    0.05   -0.02    0.00    0.00      -0.19    0.44   -0.15
#  22    0.00   -0.14    0.00    0.06   -0.01    0.00    0.00      -0.10    0.63   -0.16
#  23    0.06   -0.40    0.02    0.07   -0.05    0.00    0.00      -0.30    0.45   -0.33
#  24   -0.01   -1.03    0.16    0.12   -0.11    0.00    0.00      -0.87    0.43   -0.39
#  25    0.15   -1.85    0.47    0.05   -0.19    0.00    0.00      -1.37    0.12   -0.47
#  26    0.01   -1.49    0.33    0.02   -0.14    0.00    0.00      -1.28    0.05   -0.33
#  27    2.58   -2.05    0.44    1.56    0.27    0.00    0.00       2.79    2.99    0.52
#  28   -3.38   -1.54    0.37   -1.09    0.01    0.00    0.00      -5.63   -2.15    0.02
#  29    6.40   -1.71    1.07    2.96    0.13    0.00    0.00       8.85    7.80    0.34
#  30   -0.95   -0.88    0.11   -0.05   -0.09    0.00    0.00      -1.86   -0.18   -0.32
#  31    0.87   -0.40    0.01    0.75   -0.06    0.00    0.00       1.16    4.97   -0.41
#  32   -4.26   -0.31    0.01   -1.95   -0.02    0.00    0.00      -6.53  -15.43   -0.16
#  33    5.21   -0.32    0.02    3.19   -0.04    0.00    0.00       8.06   22.31   -0.29
#  34    4.61   -0.26    0.00    3.41   -0.07    0.00    0.00       7.71   29.02   -0.56
#  35   -1.90   -0.11    0.00    0.36   -0.02    0.00    0.00      -1.67    4.07   -0.28
#  36   -3.38   -0.20    0.01    0.79   -0.06    0.00    0.00      -2.83    3.92   -0.28
#  37   -2.28   -0.72    0.59    0.54   -0.09    0.00    0.00      -1.96    1.68   -0.28
#  38   -0.60   -0.25    0.07    0.37   -0.06    0.00    0.00      -0.47    1.79   -0.28
#  39   -0.84   -0.52    0.23    0.50   -0.09    0.00    0.00      -0.72    1.54   -0.28
#  40   -0.32   -0.68    0.32    0.63   -0.12    0.00    0.00      -0.17    1.50   -0.28
#  41   -0.19   -0.17    0.03    0.04   -0.04    0.00    0.00      -0.34    0.25   -0.28
#  42    0.49   -0.19    0.01    0.05   -0.06    0.00    0.00       0.30    0.26   -0.28
#  43    1.06   -0.43    0.50    0.32   -0.06    0.00    0.00       1.39    1.46   -0.28
#  44    0.11   -0.14    0.03    0.16   -0.03    0.00    0.00       0.14    1.44   -0.25
#  45    0.84    0.00    0.00    0.02    0.02    0.00    0.00       0.87    0.38    0.44
#  46    0.48   -0.11    0.00   -0.06   -0.03    0.00    0.00       0.29   -0.61   -0.26
#  47    0.24   -0.09    0.00   -0.05   -0.02    0.00    0.00       0.08   -0.56   -0.28
#  48    0.34   -0.09    0.01   -0.04   -0.03    0.00    0.00       0.19   -0.40   -0.28
#  49    0.13   -0.02    0.00    0.00   -0.01    0.00    0.00       0.09   -0.15   -0.28
#  50    0.09   -0.01    0.00    0.00    0.00    0.00    0.00       0.08   -0.13   -0.28
#  51    0.08    0.00    0.00   -0.01    0.00    0.00    0.00       0.07   -0.87   -0.28
#  52    0.10   -0.02    0.00   -0.03   -0.01    0.00    0.00       0.05   -1.31   -0.27
#  53    0.13   -0.10    0.01    0.00   -0.02    0.00    0.00       0.02    0.01   -0.22
#  54    0.04   -0.04    0.00   -0.03   -0.01    0.00    0.00      -0.04   -0.76   -0.20
#  55   -0.01   -0.03    0.00   -0.03   -0.01    0.00    0.00      -0.07   -0.90   -0.20
#  56    0.20   -0.29    0.08    0.02   -0.04    0.00    0.00      -0.03    0.07   -0.18
#  57   -0.08   -0.78    0.45    0.09   -0.13    0.00    0.00      -0.45    0.20   -0.28
#  58   -1.61   -0.53    0.26   -0.55   -0.12    0.00    0.00      -2.54   -1.27   -0.28
#  59   -1.54   -0.75    0.27   -0.54   -0.16    0.00    0.00      -2.72   -0.98   -0.28

@<TRIPOS>MOLECULE
       AVX17557_0       100
   59    62     0     0     0



@<TRIPOS>ATOM
      1 N1          1.5357   -19.7191    -1.6795 N.4        1          -0.6386
      2 H1          1.3280   -19.6583    -2.6650 H          1           0.4366
      3 H2          1.7329   -18.7973    -1.3199 H          1           0.4356
      4 H3          0.7426   -20.1080    -1.1919 H          1           0.4349
      5 C1          2.7061   -20.5839    -1.4783 C.3        1          -0.0100
      6 C2          3.0212   -20.6761     0.0160 C.3        1          -0.1527
      7 C3          4.2401   -21.5768     0.2255 C.3        1          -0.1193
      8 C4          3.9411   -22.9747    -0.3198 C.3        1          -0.1040
      9 C5          2.7382   -23.5640     0.4196 C.3        1          -0.1462
     10 C6          2.4436   -24.9409    -0.1176 C.2        1           0.5113
     11 O1          3.3431   -25.6258    -0.5565 O.2        1          -0.5432
     12 N2          1.1806   -25.4111    -0.1102 N.am       1          -0.7087
     13 C7          0.8943   -26.7496    -0.6324 C.3        1           0.1459
     14 C8          0.9137   -27.7967     0.5014 C.3        1          -0.0866
     15 C9         -0.5177   -27.8825     0.9859 C.ar       1          -0.1064
     16 C10        -1.0383   -28.4006     2.1602 C.ar       1          -0.1136
     17 C11        -2.3997   -28.3697     2.3900 C.ar       1          -0.1272
     18 C12        -3.2466   -27.8199     1.4456 C.ar       1          -0.1233
     19 C13        -2.7295   -27.3028     0.2740 C.ar       1          -0.0890
     20 C14        -1.3645   -27.3329     0.0416 C.ar       1          -0.0694
     21 C15        -0.5599   -26.8402    -1.1421 C.3        1          -0.0381
     22 C16        -1.0547   -25.4612    -1.5832 C.3        1          -0.0586
     23 C17        -0.2082   -24.9663    -2.7275 C.ar       1          -0.0337
     24 C18         0.3604   -25.8650    -3.6026 C.ar       1          -0.1331
     25 C19         1.1404   -25.4191    -4.6578 C.ar       1          -0.1042
     26 C20         1.3560   -24.0655    -4.8441 C.ar       1          -0.0015
     27 O2          2.0644   -23.3695    -5.7776 O.3        1          -0.3203
     28 C21         2.3027   -22.0680    -5.2204 C.3        1           0.2052
     29 O3          1.1542   -21.8995    -4.3758 O.3        1          -0.2759
     30 C22         0.7876   -23.1431    -3.9681 C.ar       1           0.0789
     31 C23        -0.0044   -23.5927    -2.9047 C.ar       1          -0.1204
     32 C24        -0.6146   -22.6277    -1.9761 C.2        1           0.5200
     33 O4         -1.7291   -22.1783    -2.2059 O.co2      1          -0.6706
     34 O5         -0.0075   -22.2749    -0.9744 O.co2      1          -0.6684
     35 H4          2.4932   -21.5798    -1.8669 H          1           0.1330
     36 H5          3.5631   -20.1639    -2.0051 H          1           0.1338
     37 H6          3.2343   -19.6803     0.4046 H          1           0.0894
     38 H7          2.1643   -21.0960     0.5427 H          1           0.0881
     39 H8          5.0970   -21.1568    -0.3013 H          1           0.0741
     40 H9          4.4646   -21.6426     1.2901 H          1           0.0759
     41 H10         3.7165   -22.9089    -1.3844 H          1           0.0759
     42 H11         4.8094   -23.6164    -0.1706 H          1           0.0732
     43 H12         2.9629   -23.6298     1.4842 H          1           0.0926
     44 H13         1.8698   -22.9223     0.2704 H          1           0.0948
     45 H14         0.4612   -24.8633     0.2409 H          1           0.4011
     46 H15         1.5983   -27.0149    -1.4210 H          1           0.1021
     47 H16         1.2419   -28.7628     0.1183 H          1           0.0864
     48 H17         1.5673   -27.4674     1.3092 H          1           0.0719
     49 H18        -0.3774   -28.8306     2.8983 H          1           0.1120
     50 H19        -2.8024   -28.7748     3.3066 H          1           0.1175
     51 H20        -4.3115   -27.7952     1.6235 H          1           0.1203
     52 H21        -3.3917   -26.8735    -0.4632 H          1           0.1305
     53 H22        -0.6280   -27.5492    -1.9671 H          1           0.1168
     54 H23        -2.0936   -25.5338    -1.9047 H          1           0.1224
     55 H24        -0.9805   -24.7645    -0.7484 H          1           0.0445
     56 H25         0.1978   -26.9239    -3.4653 H          1           0.1190
     57 H26         1.5824   -26.1322    -5.3379 H          1           0.1182
     58 H27         3.2224   -22.0563    -4.6354 H          1           0.1251
     59 H28         2.3279   -21.3078    -6.0011 H          1           0.0761
@<TRIPOS>BOND
     1    1    2 1
     2    1    3 1
     3    1    4 1
     4    1    5 1
     5    5    6 1
     6    5   35 1
     7    5   36 1
     8    6    7 1
     9    6   37 1
    10    6   38 1
    11    7    8 1
    12    7   39 1
    13    7   40 1
    14    8    9 1
    15    8   41 1
    16    8   42 1
    17    9   10 1
    18    9   43 1
    19    9   44 1
    20   10   11 2
    21   10   12 am
    22   12   13 1
    23   12   45 1
    24   13   21 1
    25   13   14 1
    26   13   46 1
    27   14   15 1
    28   14   47 1
    29   14   48 1
    30   15   20 ar
    31   15   16 ar
    32   16   17 ar
    33   16   49 1
    34   17   18 ar
    35   17   50 1
    36   18   19 ar
    37   18   51 1
    38   19   20 ar
    39   19   52 1
    40   20   21 1
    41   21   22 1
    42   21   53 1
    43   22   23 1
    44   22   54 1
    45   22   55 1
    46   23   31 ar
    47   23   24 ar
    48   24   25 ar
    49   24   56 1
    50   25   26 ar
    51   25   57 1
    52   26   30 ar
    53   26   27 1
    54   27   28 1
    55   28   29 1
    56   28   58 1
    57   28   59 1
    58   29   30 1
    59   30   31 ar
    60   31   32 1
    61   32   33 1
    62   32   34 2
