AVX101140_0, 3
##########                 Name:          AVX101140_0
##########          Protonation:                  100
##########               SMILES:   c1cc2c(cc1Br)C(=O)C(=O)N2Cc3ccc4c(c3C(=O)[O-])OCCO4
##########            Long Name:   mo-2,3-dioxo-indolin-1-yl)methyl]-2,3-dihydro-1,4-benzodioxine-5-carboxylate
##########          FlexRecCode: 1
##########               Number:                  172
##########   Ligand Source File: /raid1/people/rgc/Examples/sampl4/screening/ligands/build_1//sampl4-hivint-00000
##########           GlobalRank: 103
##########                 Rank:                    1
##########               Setnum:                    6
##########             Matchnum:                11224
##########                Cloud:                    1
##########        Electrostatic:           -15.337799
##########        Van der Waals:           -29.219915
##########  Ligand Polar Desolv:            23.773771
########## Ligand Apolar Desolv:            -2.552752
##########      Internal Energy:             0.000000
##########      Receptor Energy: 0.0
########## Receptor Desolvation:             0.000000
########## Receptor Hydrophobic:             0.000000
##########         Total Energy: -23.34
##########        Ligand Charge:            -1.000000
##########            Arbitrary:    +999.9990
##########     heavy atom count:   26
##########           pose count:    1
##########        Ligand Energy:             0.000000
# num electro vdwattr vdwrepu polsolv apolsol rdesolv rhydroe totalscore fullpol fullapo
#   1  -11.97   -3.36    3.20   12.58   -0.16    0.00    0.00       0.29   26.19   -0.33
#   2    7.19   -1.66    0.30   -7.49   -0.07    0.00    0.00      -1.72  -17.35   -0.17
#   3   -9.44   -1.31    0.38   10.06   -0.21    0.00    0.00      -0.52   28.60   -0.59
#   4   -1.13   -1.63    0.19    2.76   -0.18    0.00    0.00       0.02    6.14   -0.41
#   5    1.09   -2.11    0.32   -0.91   -0.17    0.00    0.00      -1.77   -1.65   -0.30
#   6   -4.44   -2.64    0.67    5.33    0.17    0.00    0.00      -0.90    8.51    0.27
#   7    0.20   -2.55    0.77    0.14   -0.10    0.00    0.00      -1.54    0.20   -0.14
#   8    0.19   -2.56    0.73   -0.17   -0.10    0.00    0.00      -1.90   -0.24   -0.14
#   9   -2.07   -2.57    0.52    3.00    0.48    0.00    0.00      -0.64    4.24    0.68
#  10    0.19   -2.79    0.99   -0.39   -0.18    0.00    0.00      -2.18   -0.66   -0.30
#  11   -0.04   -3.19    1.37    0.56   -0.26    0.00    0.00      -1.54    1.01   -0.46
#  12    0.57   -2.37    0.61    0.99   -0.21    0.00    0.00      -0.40    2.00   -0.42
#  13    0.05   -1.60    0.24    0.63   -0.17    0.00    0.00      -0.85    1.53   -0.41
#  14   -1.20   -0.72    0.06   -1.55   -0.11    0.00    0.00      -3.52   -4.48   -0.33
#  15    3.40   -0.75    0.07    2.27    0.23    0.00    0.00       5.23    9.03    0.92
#  16   -4.35   -1.64    1.05   -2.55   -0.18    0.00    0.00      -7.66   -8.35   -0.58
#  17    4.42   -2.88    2.42    4.50    0.17    0.00    0.00       8.64   11.30    0.43
#  18   -3.32   -1.18    0.49   -1.63   -0.10    0.00    0.00      -5.74   -5.82   -0.35
#  19    3.55   -1.22    0.22    2.43    0.18    0.00    0.00       5.15    5.93    0.43
#  20    1.18   -0.47    0.03    0.37   -0.07    0.00    0.00       1.05    2.34   -0.44
#  21   -0.67   -0.47    0.02   -0.36   -0.12    0.00    0.00      -1.60   -2.17   -0.72
#  22   -0.26   -0.62    0.15    0.22   -0.07    0.00    0.00      -0.59    1.34   -0.45
#  23   -0.01   -0.34    0.03   -0.02   -0.05    0.00    0.00      -0.39   -0.19   -0.46
#  24    0.06   -0.18    0.00    0.05   -0.02    0.00    0.00      -0.10    0.70   -0.30
#  25   -0.02   -0.27    0.00    0.00   -0.05    0.00    0.00      -0.34   -0.07   -1.10
#  26   -0.07   -0.28    0.01   -0.04   -0.05    0.00    0.00      -0.42   -0.34   -0.46
#  27    1.49   -1.17    0.98   -1.25   -0.18    0.00    0.00      -0.13   -1.97   -0.28
#  28    1.36   -1.20    0.74   -0.80   -0.19    0.00    0.00      -0.09   -1.20   -0.28
#  29    0.39   -1.31    0.95   -0.58   -0.19    0.00    0.00      -0.74   -0.85   -0.28
#  30    1.33   -1.10    0.59   -0.79   -0.17    0.00    0.00      -0.15   -1.26   -0.28
#  31   -0.38   -0.64    0.22   -1.30   -0.15    0.00    0.00      -2.25   -2.34   -0.28
#  32   -1.27   -0.43    0.10   -1.00   -0.09    0.00    0.00      -2.69   -2.39   -0.21
#  33   -0.32   -0.25    0.03   -0.64   -0.06    0.00    0.00      -1.23   -2.43   -0.22
#  34   -1.97   -0.26    0.03   -0.33   -0.05    0.00    0.00      -2.58   -1.51   -0.25
#  35    1.07   -0.40    0.49   -0.25   -0.05    0.00    0.00       0.87   -1.51   -0.27
#  36    0.27   -0.08    0.01   -0.05   -0.02    0.00    0.00       0.13   -0.65   -0.28
#  37   -0.42   -0.06    0.00   -0.05   -0.01    0.00    0.00      -0.53   -0.91   -0.28

@<TRIPOS>MOLECULE
      AVX101140_0       100
   37    40     0     0     0



@<TRIPOS>ATOM
      1 O1          5.0439   -23.8517     2.0083 O.co2      1          -0.6868
      2 C1          4.9739   -24.2462     0.8524 C.2        1           0.5238
      3 O2          4.1487   -25.0953     0.5448 O.co2      1          -0.6590
      4 C2          5.8781   -23.6947    -0.1694 C.ar       1          -0.1255
      5 C3          7.1152   -24.3057    -0.4199 C.ar       1           0.0909
      6 O3          7.4750   -25.4102     0.2824 O.3        1          -0.2561
      7 C4          8.8643   -25.7536     0.2744 C.3        1           0.0131
      8 C5          9.3418   -25.7003    -1.1818 C.3        1           0.0202
      9 O4          9.1668   -24.3559    -1.6405 O.3        1          -0.3129
     10 C6          7.9618   -23.7758    -1.3868 C.ar       1           0.0245
     11 C7          7.5799   -22.6501    -2.0985 C.ar       1          -0.1102
     12 C8          6.3580   -22.0460    -1.8519 C.ar       1          -0.1302
     13 C9          5.5059   -22.5612    -0.9006 C.ar       1          -0.0716
     14 C10         4.1757   -21.9012    -0.6430 C.3        1           0.1736
     15 N1          3.1589   -22.4955    -1.5142 N.am       1          -0.5425
     16 C11         3.2147   -22.4889    -2.8573 C.2        1           0.4872
     17 O5          4.0941   -22.0014    -3.5359 O.2        1          -0.4322
     18 C12         1.9919   -23.1945    -3.3637 C.2        1           0.3951
     19 O6          1.6779   -23.3949    -4.5187 O.2        1          -0.3741
     20 C13         1.2550   -23.5912    -2.1495 C.ar       1          -0.2442
     21 C14         2.0143   -23.1445    -1.0553 C.ar       1           0.2275
     22 C15         1.5521   -23.3905     0.2305 C.ar       1          -0.1414
     23 C16         0.3630   -24.0688     0.4245 C.ar       1          -0.0115
     24 C17        -0.3824   -24.5120    -0.6557 C.ar       1          -0.1410
     25 Br1        -2.0059   -25.4378    -0.3673 Br         1          -0.0427
     26 C18         0.0547   -24.2702    -1.9437 C.ar       1           0.0241
     27 H1          9.4260   -25.0378     0.8745 H          1           0.1167
     28 H2          8.9992   -26.7597     0.6715 H          1           0.0708
     29 H3         10.3949   -25.9760    -1.2364 H          1           0.0729
     30 H4          8.7466   -26.3799    -1.7917 H          1           0.1151
     31 H5          8.2391   -22.2408    -2.8498 H          1           0.1267
     32 H6          6.0699   -21.1687    -2.4121 H          1           0.1120
     33 H7          3.8927   -22.0488     0.3991 H          1           0.1225
     34 H8          4.2534   -20.8340    -0.8507 H          1           0.1223
     35 H9          2.1233   -23.0512     1.0819 H          1           0.1503
     36 H10         0.0118   -24.2553     1.4286 H          1           0.1474
     37 H11        -0.5248   -24.6155    -2.7871 H          1           0.1452
@<TRIPOS>BOND
     1    1    2 1
     2    2    3 2
     3    2    4 1
     4    4   13 ar
     5    4    5 ar
     6    5   10 ar
     7    5    6 1
     8    6    7 1
     9    7    8 1
    10    7   27 1
    11    7   28 1
    12    8    9 1
    13    8   29 1
    14    8   30 1
    15    9   10 1
    16   10   11 ar
    17   11   12 ar
    18   11   31 1
    19   12   13 ar
    20   12   32 1
    21   13   14 1
    22   14   15 1
    23   14   33 1
    24   14   34 1
    25   15   21 1
    26   15   16 am
    27   16   17 2
    28   16   18 1
    29   18   19 2
    30   18   20 1
    31   20   26 ar
    32   20   21 ar
    33   21   22 ar
    34   22   23 ar
    35   22   35 1
    36   23   24 ar
    37   23   36 1
    38   24   25 1
    39   24   26 ar
    40   26   37 1
