AVX17715_0, 3
##########                 Name:           AVX17715_0
##########          Protonation:                   93
##########               SMILES:   COc1ccc(cc1)CNC(=O)c2ccccc2C[NH2+]Cc3ccc4c(c3C(=O)[O-])OCO4
##########            Long Name:   )methylcarbamoyl]phenyl]methylammonio]methyl]-1,3-benzodioxole-4-carboxylate
##########          FlexRecCode: 1
##########               Number:                  361
##########   Ligand Source File: /raid1/people/rgc/Examples/sampl4/screening/ligands/build_1//sampl4-hivint-00000
##########           GlobalRank: 9
##########                 Rank:                    1
##########               Setnum:                  290
##########             Matchnum:                22886
##########                Cloud:                    1
##########        Electrostatic:           -19.014570
##########        Van der Waals:           -29.412874
##########  Ligand Polar Desolv:            10.686092
########## Ligand Apolar Desolv:            -2.933971
##########      Internal Energy:             0.000000
##########      Receptor Energy: 0.0
########## Receptor Desolvation:             0.000000
########## Receptor Hydrophobic:             0.000000
##########         Total Energy: -40.68
##########        Ligand Charge:             0.000000
##########            Arbitrary:    +999.9990
##########     heavy atom count:   33
##########           pose count:    1
##########        Ligand Energy:             0.000000
# num electro vdwattr vdwrepu polsolv apolsol rdesolv rhydroe totalscore fullpol fullapo
#   1   -0.77   -1.64    0.65    0.02    0.01    0.00    0.00      -1.73    0.04    0.03
#   2    4.88   -1.23    0.29    0.02    0.31    0.00    0.00       4.26    0.06    0.93
#   3   -1.70   -1.47    0.99    0.02   -0.08    0.00    0.00      -2.24    0.09   -0.31
#   4    0.77   -1.13    1.13   -0.14   -0.08    0.00    0.00       0.56   -0.79   -0.42
#   5    0.10   -0.69    0.45   -0.05   -0.06    0.00    0.00      -0.25   -0.34   -0.45
#   6    1.30   -0.62    0.18   -0.17   -0.07    0.00    0.00       0.63   -0.95   -0.37
#   7   -1.05   -0.23    0.02    0.20   -0.06    0.00    0.00      -1.12    1.53   -0.44
#   8    2.72   -0.21    0.00   -0.57    0.20    0.00    0.00       2.14   -6.67    2.32
#   9   -2.73   -0.35    0.01    0.68   -0.09    0.00    0.00      -2.46    4.96   -0.63
#  10    5.78   -0.55    0.04   -0.99    0.06    0.00    0.00       4.34   -4.96    0.29
#  11    0.08   -0.45    0.02   -0.18   -0.07    0.00    0.00      -0.59   -1.00   -0.41
#  12   -0.08   -0.83    0.20   -0.14   -0.09    0.00    0.00      -0.93   -0.68   -0.44
#  13   -0.12   -1.09    0.30   -0.20   -0.12    0.00    0.00      -1.24   -0.77   -0.47
#  14   -0.18   -0.90    0.07   -0.17   -0.14    0.00    0.00      -1.31   -0.55   -0.47
#  15   -0.44   -0.89    0.10   -0.16   -0.12    0.00    0.00      -1.52   -0.58   -0.44
#  16   -0.12   -0.65    0.08   -0.12   -0.07    0.00    0.00      -0.88   -0.58   -0.37
#  17   -0.02   -0.58    0.21    0.09   -0.07    0.00    0.00      -0.37    0.45   -0.35
#  18   -0.32   -0.37    0.02   -0.58    0.11    0.00    0.00      -1.15   -3.46    0.65
#  19   -0.40    0.00    0.00    0.27    0.03    0.00    0.00      -0.10    4.45    0.44
#  20    2.22   -0.01    0.00    0.12    0.04    0.00    0.00       2.37    1.35    0.44
#  21   -0.18   -0.43    0.03    0.10   -0.08    0.00    0.00      -0.57    0.40   -0.35
#  22    0.04   -0.98    0.09   -0.03   -0.12    0.00    0.00      -1.00   -0.10   -0.37
#  23    0.64   -1.40    0.19   -0.15   -0.18    0.00    0.00      -0.89   -0.36   -0.45
#  24    0.27   -2.29    0.59   -0.09   -0.23    0.00    0.00      -1.74   -0.18   -0.47
#  25    0.24   -2.27    0.53    0.00   -0.17    0.00    0.00      -1.66    0.00   -0.33
#  26   -2.68   -2.24    0.65    1.21    0.32    0.00    0.00      -2.74    1.94    0.52
#  27    2.74   -1.69    0.23   -0.79    0.01    0.00    0.00       0.50   -1.20    0.02
#  28   -4.74   -2.33    0.65    2.76    0.19    0.00    0.00      -3.47    4.85    0.34
#  29    0.93   -1.73    0.22   -0.02   -0.15    0.00    0.00      -0.75   -0.04   -0.32
#  30   -1.00   -1.18    0.12    0.61   -0.16    0.00    0.00      -1.60    1.61   -0.41
#  31    6.89   -1.32    0.36   -2.77   -0.05    0.00    0.00       3.11   -8.08   -0.15
#  32  -10.39   -1.52    0.28    3.42   -0.11    0.00    0.00      -8.33    8.89   -0.29
#  33   -8.21   -1.15    0.37    5.09   -0.15    0.00    0.00      -4.05   18.72   -0.56
#  34    0.99   -1.03    0.23   -0.07   -0.11    0.00    0.00       0.00   -0.29   -0.45
#  35    3.03   -1.43    0.47   -0.11   -0.14    0.00    0.00       1.82   -0.37   -0.46
#  36   -4.03   -0.90    1.58    0.21   -0.11    0.00    0.00      -3.25    0.55   -0.28
#  37   -1.87   -0.40    0.11    0.12   -0.09    0.00    0.00      -2.13    0.35   -0.27
#  38   -2.02   -0.99    1.04    0.14   -0.12    0.00    0.00      -1.95    0.31   -0.26
#  39   -0.11   -0.12    0.03    0.07   -0.02    0.00    0.00      -0.14    0.70   -0.22
#  40   -0.02   -0.06    0.01    0.08   -0.02    0.00    0.00       0.00    1.30   -0.28
#  41   -0.16   -0.04    0.00    0.03   -0.01    0.00    0.00      -0.18    0.71   -0.28
#  42   -0.94   -0.15    0.04    0.11   -0.03    0.00    0.00      -0.98    0.91   -0.28
#  43   -0.55    0.00    0.00    0.12    0.01    0.00    0.00      -0.43    4.35    0.43
#  44    0.16   -0.21    0.07    0.29   -0.03    0.00    0.00       0.27    1.83   -0.22
#  45    0.05   -0.30    0.13    0.29   -0.06    0.00    0.00       0.11    1.30   -0.28
#  46    0.07   -0.20    0.01    0.16   -0.06    0.00    0.00      -0.01    0.74   -0.28
#  47    1.46   -0.24    0.04    0.11   -0.07    0.00    0.00       1.30    0.46   -0.28
#  48    0.39   -0.57    1.12    0.20   -0.06    0.00    0.00       1.09    0.91   -0.28
#  49   -0.89   -0.14    0.02    0.23   -0.03    0.00    0.00      -0.81    1.84   -0.21
#  50   -1.77   -0.10    0.00    0.01   -0.02    0.00    0.00      -1.87    0.11   -0.21
#  51    0.02   -0.26    0.12    0.49   -0.06    0.00    0.00       0.32    2.43   -0.28
#  52   -2.08   -0.22    0.02    0.64   -0.06    0.00    0.00      -1.71    2.81   -0.28
#  53   -0.98   -0.52    0.12    0.47   -0.13    0.00    0.00      -1.05    1.00   -0.28
#  54    1.90   -0.88    0.44   -0.27   -0.15    0.00    0.00       1.03   -0.50   -0.28
#  55    1.11   -0.53    0.05   -0.25   -0.18    0.00    0.00       0.21   -0.39   -0.28
#  56   -3.23   -0.29    0.10    0.26   -0.07    0.00    0.00      -3.23    1.09   -0.28
#  57   -4.02   -0.37    0.13    0.05   -0.07    0.00    0.00      -4.29    0.20   -0.28

@<TRIPOS>MOLECULE
       AVX17715_0        93
   57    60     0     0     0



@<TRIPOS>ATOM
      1 C1          1.2474   -17.7990     0.2727 C.3        1           0.0249
      2 O1          0.0814   -18.4552     0.7747 O.3        1          -0.3151
      3 C2         -0.4908   -19.3936    -0.0247 C.ar       1           0.1421
      4 C3         -1.6288   -20.0655     0.3975 C.ar       1          -0.2108
      5 C4         -2.2089   -21.0186    -0.4171 C.ar       1          -0.0565
      6 C5         -1.6560   -21.3033    -1.6520 C.ar       1          -0.1594
      7 C6         -2.2904   -22.3440    -2.5384 C.3        1           0.1654
      8 N1         -1.7060   -23.6554    -2.2472 N.am       1          -0.7092
      9 C7         -0.6154   -24.0717    -2.9208 C.2        1           0.5605
     10 O2         -0.1168   -23.3591    -3.7700 O.2        1          -0.5535
     11 C8         -0.0256   -25.3953    -2.6272 C.ar       1          -0.1270
     12 C9         -0.7833   -26.5546    -2.8013 C.ar       1          -0.0839
     13 C10        -0.2270   -27.7864    -2.5258 C.ar       1          -0.1021
     14 C11         1.0793   -27.8743    -2.0772 C.ar       1          -0.0853
     15 C12         1.8356   -26.7293    -1.9025 C.ar       1          -0.0908
     16 C13         1.2929   -25.4914    -2.1799 C.ar       1          -0.0878
     17 C14         2.1201   -24.2454    -1.9945 C.3        1           0.0415
     18 N2          1.9514   -23.7450    -0.6237 N.4        1          -0.4814
     19 H1          0.9789   -23.5303    -0.4614 H          1           0.4089
     20 H2          2.2540   -24.4503     0.0313 H          1           0.4277
     21 C15         2.7578   -22.5307    -0.4429 C.3        1           0.0578
     22 C16         4.2102   -22.8514    -0.6853 C.ar       1          -0.1185
     23 C17         4.9836   -22.0071    -1.4506 C.ar       1          -0.0986
     24 C18         6.3201   -22.2939    -1.6788 C.ar       1          -0.1053
     25 C19         6.8924   -23.4321    -1.1397 C.ar       1           0.0383
     26 O3          8.1543   -23.9432    -1.2045 O.3        1          -0.3092
     27 C20         8.0496   -25.3312    -0.8532 C.3        1           0.2036
     28 O4          6.9229   -25.3210     0.0361 O.3        1          -0.2718
     29 C21         6.1240   -24.2965    -0.3628 C.ar       1           0.0790
     30 C22         4.7749   -24.0047    -0.1279 C.ar       1          -0.1121
     31 C23         3.9544   -24.9073     0.6956 C.2        1           0.5216
     32 O5          3.8793   -24.7337     1.9041 O.co2      1          -0.6990
     33 O6          3.3476   -25.8314     0.1715 O.co2      1          -0.6336
     34 C24        -0.5220   -20.6347    -2.0751 C.ar       1          -0.0575
     35 C25         0.0587   -19.6771    -1.2666 C.ar       1          -0.1537
     36 H3          1.6022   -17.0762     1.0074 H          1           0.1040
     37 H4          2.0268   -18.5374     0.0838 H          1           0.0577
     38 H5          1.0028   -17.2832    -0.6558 H          1           0.0582
     39 H6         -2.0606   -19.8439     1.3622 H          1           0.1321
     40 H7         -3.0948   -21.5421    -0.0889 H          1           0.1276
     41 H8         -3.3637   -22.3750    -2.3515 H          1           0.0835
     42 H9         -2.1105   -22.0900    -3.5831 H          1           0.0823
     43 H10        -2.1039   -24.2242    -1.5696 H          1           0.4055
     44 H11        -1.8031   -26.4873    -3.1506 H          1           0.1327
     45 H12        -0.8120   -28.6841    -2.6602 H          1           0.1385
     46 H13         1.5099   -28.8410    -1.8624 H          1           0.1401
     47 H14         2.8542   -26.8048    -1.5518 H          1           0.1473
     48 H15         3.1706   -24.4773    -2.1700 H          1           0.1360
     49 H16         1.7931   -23.4835    -2.7022 H          1           0.1527
     50 H17         2.4310   -21.7687    -1.1506 H          1           0.1671
     51 H18         2.6326   -22.1594     0.5742 H          1           0.1194
     52 H19         4.5458   -21.1161    -1.8758 H          1           0.1411
     53 H20         6.9178   -21.6257    -2.2809 H          1           0.1384
     54 H21         7.8471   -25.9422    -1.7328 H          1           0.1343
     55 H22         8.9487   -25.6729    -0.3403 H          1           0.0847
     56 H23        -0.0923   -20.8587    -3.0403 H          1           0.1323
     57 H24         0.9421   -19.1524    -1.5990 H          1           0.1351
@<TRIPOS>BOND
     1    1    2 1
     2    1   36 1
     3    1   37 1
     4    1   38 1
     5    2    3 1
     6    3   35 ar
     7    3    4 ar
     8    4    5 ar
     9    4   39 1
    10    5    6 ar
    11    5   40 1
    12    6    7 1
    13    6   34 ar
    14    7    8 1
    15    7   41 1
    16    7   42 1
    17    8    9 am
    18    8   43 1
    19    9   10 2
    20    9   11 1
    21   11   16 ar
    22   11   12 ar
    23   12   13 ar
    24   12   44 1
    25   13   14 ar
    26   13   45 1
    27   14   15 ar
    28   14   46 1
    29   15   16 ar
    30   15   47 1
    31   16   17 1
    32   17   18 1
    33   17   48 1
    34   17   49 1
    35   18   19 1
    36   18   20 1
    37   18   21 1
    38   21   22 1
    39   21   50 1
    40   21   51 1
    41   22   30 ar
    42   22   23 ar
    43   23   24 ar
    44   23   52 1
    45   24   25 ar
    46   24   53 1
    47   25   29 ar
    48   25   26 1
    49   26   27 1
    50   27   28 1
    51   27   54 1
    52   27   55 1
    53   28   29 1
    54   29   30 ar
    55   30   31 1
    56   31   32 1
    57   31   33 2
    58   34   35 ar
    59   34   56 1
    60   35   57 1
