AVX17560_0, 3
##########                 Name:           AVX17560_0
##########          Protonation:                  100
##########               SMILES:   CC(C)C[C@@H](Cc1ccc2c(c1C(=O)[O-])OCO2)CNC(=O)CCC[NH3+]
##########            Long Name:   aniumylbutanoylamino)methyl]-4-methyl-pentyl]-1,3-benzodioxole-4-carboxylate
##########          FlexRecCode: 1
##########               Number:                  507
##########   Ligand Source File: /raid1/people/rgc/Examples/sampl4/screening/ligands/build_1//sampl4-hivint-00000
##########           GlobalRank: 134
##########                 Rank:                    1
##########               Setnum:                    1
##########             Matchnum:                15147
##########                Cloud:                    1
##########        Electrostatic:           -13.452327
##########        Van der Waals:           -13.818975
##########  Ligand Polar Desolv:            11.975587
########## Ligand Apolar Desolv:            -0.718007
##########      Internal Energy:             0.000000
##########      Receptor Energy: 0.0
########## Receptor Desolvation:             0.000000
########## Receptor Hydrophobic:             0.000000
##########         Total Energy: -16.01
##########        Ligand Charge:             0.000000
##########            Arbitrary:    +999.9990
##########     heavy atom count:   26
##########           pose count:    1
##########        Ligand Energy:             0.000000
# num electro vdwattr vdwrepu polsolv apolsol rdesolv rhydroe totalscore fullpol fullapo
#   1   -0.16   -0.09    0.00    0.08   -0.01    0.00    0.00      -0.18    1.51   -0.17
#   2   -0.13   -0.19    0.01    0.08   -0.01    0.00    0.00      -0.24    0.85   -0.15
#   3   -0.21   -0.35    0.06    0.09   -0.02    0.00    0.00      -0.45    0.63   -0.18
#   4   -0.47   -0.41    0.05    0.06   -0.03    0.00    0.00      -0.80    0.32   -0.17
#   5   -0.40   -0.23    0.01    0.07   -0.01    0.00    0.00      -0.57    0.49   -0.09
#   6    0.98   -0.43    0.04   -0.12   -0.08    0.00    0.00       0.40   -0.57   -0.37
#   7   -5.72   -0.87    0.17   -0.10    0.54    0.00    0.00      -5.98   -0.42    2.18
#   8    3.04   -0.97    0.09    0.54   -0.21    0.00    0.00       2.49    1.67   -0.66
#   9   -4.58   -1.01    0.10    0.22    0.14    0.00    0.00      -5.12    0.63    0.38
#  10    0.19   -1.25    0.32   -0.64   -0.09    0.00    0.00      -1.47   -1.71   -0.24
#  11    1.33   -1.45    0.52   -1.04   -0.08    0.00    0.00      -0.72   -2.57   -0.20
#  12    0.13   -0.70    0.06    0.33   -0.17    0.00    0.00      -0.36    0.95   -0.49
#  13   12.59   -0.68    0.03   -5.97    0.26    0.00    0.00       6.24  -19.69    0.86
#  14   -5.85   -0.01    0.00    1.49    0.06    0.00    0.00      -4.32   14.60    0.58
#  15  -12.02   -0.02    0.00    2.85    0.11    0.00    0.00      -9.07   14.94    0.58
#  16  -10.00   -0.01    0.00    2.66    0.10    0.00    0.00      -7.26   16.41    0.60
#  17   -0.14   -0.14    0.00    0.08   -0.01    0.00    0.00      -0.21    0.92   -0.17
#  18   -0.02   -0.21    0.00    0.03   -0.02    0.00    0.00      -0.22    0.37   -0.30
#  19   -0.15   -0.32    0.01    0.09   -0.05    0.00    0.00      -0.42    0.75   -0.39
#  20   -0.10   -0.90    0.22    0.10   -0.11    0.00    0.00      -0.78    0.46   -0.47
#  21    0.00   -0.81    0.11    0.05   -0.08    0.00    0.00      -0.73    0.20   -0.33
#  22    0.43   -1.22    0.27    1.29    0.18    0.00    0.00       0.96    3.68    0.52
#  23   -1.80   -0.80    0.16   -0.70    0.01    0.00    0.00      -3.13   -2.17    0.02
#  24    3.55   -0.74    0.13    1.81    0.08    0.00    0.00       4.83    7.42    0.34
#  25   -0.40   -0.44    0.02   -0.05   -0.06    0.00    0.00      -0.94   -0.27   -0.32
#  26    0.40   -0.26    0.00    0.44   -0.04    0.00    0.00       0.54    4.40   -0.41
#  27   -3.13   -0.30    0.01   -1.63   -0.02    0.00    0.00      -5.07  -13.74   -0.15
#  28    4.33   -0.26    0.01    2.30   -0.03    0.00    0.00       6.35   17.40   -0.21
#  29    4.50   -0.36    0.01    4.15   -0.09    0.00    0.00       8.22   26.58   -0.56
#  30    0.05   -0.02    0.00    0.00   -0.01    0.00    0.00       0.02    0.02   -0.28
#  31    0.11   -0.04    0.00   -0.01   -0.01    0.00    0.00       0.07   -0.20   -0.16
#  32    0.02   -0.01    0.00   -0.01   -0.01    0.00    0.00      -0.01   -0.65   -0.28
#  33    0.12   -0.04    0.00   -0.01   -0.01    0.00    0.00       0.07   -0.21   -0.20
#  34    0.08   -0.40    0.34   -0.03   -0.04    0.00    0.00      -0.06   -0.20   -0.28
#  35    0.05   -0.04    0.00   -0.01   -0.01    0.00    0.00       0.00   -0.25   -0.28
#  36    0.07   -0.09    0.01   -0.01   -0.02    0.00    0.00      -0.04   -0.17   -0.28
#  37    0.40   -0.38    0.28   -0.04   -0.05    0.00    0.00       0.21   -0.22   -0.28
#  38    0.29   -0.14    0.01   -0.01   -0.03    0.00    0.00       0.11   -0.08   -0.24
#  39    0.38   -0.05    0.00   -0.02   -0.01    0.00    0.00       0.30   -0.28   -0.19
#  40    1.05   -0.32    0.23   -0.03   -0.04    0.00    0.00       0.88   -0.14   -0.22
#  41    0.44   -0.11    0.01   -0.02   -0.03    0.00    0.00       0.28   -0.20   -0.28
#  42    3.87   -0.03    0.00    0.16    0.08    0.00    0.00       4.09    0.96    0.51
#  43   -0.30   -0.39    0.18    0.69   -0.08    0.00    0.00       0.10    2.38   -0.28
#  44    0.09   -0.91    1.19    0.76   -0.12    0.00    0.00       1.01    1.75   -0.28
#  45   -1.74   -1.21    2.45    0.36   -0.11    0.00    0.00      -0.25    0.96   -0.28
#  46   -0.39   -0.49    0.16    0.44   -0.09    0.00    0.00      -0.37    1.35   -0.28
#  47   -2.23   -0.30    0.07    1.26   -0.08    0.00    0.00      -1.28    4.49   -0.28
#  48   -0.85   -0.22    0.05    0.78   -0.06    0.00    0.00      -0.29    3.97   -0.28
#  49    0.17   -0.02    0.00   -0.03    0.00    0.00    0.00       0.12   -1.03   -0.14
#  50    0.08   -0.07    0.01   -0.05   -0.02    0.00    0.00      -0.06   -0.79   -0.28
#  51    0.18   -0.05    0.00   -0.03   -0.01    0.00    0.00       0.09   -0.61   -0.28
#  52    0.25   -0.50    0.50   -0.17   -0.07    0.00    0.00       0.01   -0.73   -0.28
#  53   -1.25   -0.44    0.15   -0.41   -0.09    0.00    0.00      -2.04   -1.29   -0.28
#  54   -0.58   -0.19    0.04   -0.17   -0.05    0.00    0.00      -0.95   -0.98   -0.28

@<TRIPOS>MOLECULE
       AVX17560_0       100
   54    55     0     0     0



@<TRIPOS>ATOM
      1 C1         -0.3451   -27.7756     2.7495 C.3        1          -0.1367
      2 C2         -0.0603   -26.3270     3.1512 C.3        1          -0.0911
      3 C3          0.0457   -26.2315     4.6744 C.3        1          -0.1464
      4 C4          1.2565   -25.8720     2.5188 C.3        1          -0.0979
      5 C5          1.1506   -25.9675     0.9955 C.3        1          -0.0830
      6 C6          2.4674   -25.5124     0.3631 C.3        1           0.1146
      7 N1          2.7401   -24.1254     0.7476 N.am       1          -0.7143
      8 C7          3.8542   -23.5099     0.3045 C.2        1           0.5056
      9 O1          4.6309   -24.1043    -0.4126 O.2        1          -0.5485
     10 C8          4.1347   -22.0831     0.7000 C.3        1          -0.1422
     11 C9          4.9288   -21.3926    -0.4108 C.3        1          -0.1368
     12 C10         4.1157   -21.4122    -1.7067 C.3        1          -0.0097
     13 N2          2.8461   -20.7030    -1.4990 N.4        1          -0.6369
     14 H1          2.3225   -21.1584    -0.7665 H          1           0.4363
     15 H2          3.0339   -19.7476    -1.2342 H          1           0.4358
     16 H3          2.3099   -20.7159    -2.3536 H          1           0.4370
     17 C11         0.0126   -25.0695     0.5061 C.3        1          -0.0759
     18 C12        -0.0918   -25.1636    -0.9944 C.ar       1          -0.0391
     19 C13        -0.3515   -26.3768    -1.5922 C.ar       1          -0.1369
     20 C14        -0.4495   -26.4720    -2.9709 C.ar       1          -0.1032
     21 C15        -0.2876   -25.3489    -3.7642 C.ar       1          -0.0033
     22 O2         -0.3358   -25.1834    -5.1187 O.3        1          -0.3187
     23 C16        -0.5052   -23.7685    -5.3261 C.3        1           0.2053
     24 O3          0.0919   -23.1779    -4.1567 O.3        1          -0.2770
     25 C17        -0.0246   -24.1146    -3.1754 C.ar       1           0.0757
     26 C18         0.0693   -24.0172    -1.7806 C.ar       1          -0.1233
     27 C19         0.3412   -22.7174    -1.1463 C.2        1           0.5203
     28 O4         -0.5866   -21.9891    -0.8216 O.co2      1          -0.6611
     29 O5          1.4951   -22.3651    -0.9435 O.co2      1          -0.6714
     30 H4         -0.4206   -27.8437     1.6643 H          1           0.0444
     31 H5          0.4657   -28.4154     3.0980 H          1           0.0852
     32 H6         -1.2832   -28.0999     3.2000 H          1           0.0236
     33 H7         -0.8710   -25.6873     2.8025 H          1           0.0916
     34 H8          0.2485   -25.1995     4.9606 H          1           0.0423
     35 H9         -0.8923   -26.5559     5.1251 H          1           0.0460
     36 H10         0.8565   -26.8712     5.0230 H          1           0.0509
     37 H11         1.4594   -24.8400     2.8048 H          1           0.0544
     38 H12         2.0671   -26.5118     2.8675 H          1           0.0465
     39 H13         0.9477   -26.9996     0.7094 H          1           0.0942
     40 H14         3.2781   -26.1523     0.7118 H          1           0.0743
     41 H15         2.3919   -25.5806    -0.7221 H          1           0.0651
     42 H16         2.1188   -23.6501     1.3211 H          1           0.4028
     43 H17         3.1928   -21.5568     0.8542 H          1           0.1030
     44 H18         4.7141   -22.0692     1.6233 H          1           0.1038
     45 H19         5.1316   -20.3606    -0.1247 H          1           0.0958
     46 H20         5.8707   -21.9188    -0.5649 H          1           0.0954
     47 H21         4.6813   -20.9203    -2.4980 H          1           0.1345
     48 H22         3.9129   -22.4443    -1.9928 H          1           0.1349
     49 H23        -0.9255   -25.3937     0.9566 H          1           0.1361
     50 H24         0.2156   -24.0375     0.7921 H          1           0.0494
     51 H25        -0.4791   -27.2593    -0.9828 H          1           0.1267
     52 H26        -0.6532   -27.4283    -3.4296 H          1           0.1235
     53 H27         0.0182   -23.4481    -6.2270 H          1           0.1247
     54 H28        -1.5635   -23.5141    -5.3858 H          1           0.0736
@<TRIPOS>BOND
     1    1    2 1
     2    1   30 1
     3    1   31 1
     4    1   32 1
     5    2    3 1
     6    2    4 1
     7    2   33 1
     8    3   34 1
     9    3   35 1
    10    3   36 1
    11    4    5 1
    12    4   37 1
    13    4   38 1
    14    5    6 1
    15    5   17 1
    16    5   39 1
    17    6    7 1
    18    6   40 1
    19    6   41 1
    20    7    8 am
    21    7   42 1
    22    8    9 2
    23    8   10 1
    24   10   11 1
    25   10   43 1
    26   10   44 1
    27   11   12 1
    28   11   45 1
    29   11   46 1
    30   12   13 1
    31   12   47 1
    32   12   48 1
    33   13   14 1
    34   13   15 1
    35   13   16 1
    36   17   18 1
    37   17   49 1
    38   17   50 1
    39   18   26 ar
    40   18   19 ar
    41   19   20 ar
    42   19   51 1
    43   20   21 ar
    44   20   52 1
    45   21   25 ar
    46   21   22 1
    47   22   23 1
    48   23   24 1
    49   23   53 1
    50   23   54 1
    51   24   25 1
    52   25   26 ar
    53   26   27 1
    54   27   28 1
    55   27   29 2
