AVX38786_1, 3
##########                 Name:           AVX38786_0
##########          Protonation:                   77
##########               SMILES:   H+](Cc1ccccc1C(=O)NCc2ccc(cc2)OC)Cc3ccc4c(c3C(=O)[O-])OC[C@H](O4)CCC(=O)[O-]
##########            Long Name:   ]methyl]-2-(3-oxido-3-oxo-propyl)-2,3-dihydro-1,4-benzodioxine-5-carboxylate
##########          FlexRecCode: 1
##########               Number:                  647
##########   Ligand Source File: /raid1/people/rgc/Examples/sampl4/screening/ligands/build_1//sampl4-hivint-00000
##########           GlobalRank: 31
##########                 Rank:                    1
##########               Setnum:                  313
##########             Matchnum:                 7427
##########                Cloud:                    1
##########        Electrostatic:            -7.718441
##########        Van der Waals:           -31.323254
##########  Ligand Polar Desolv:             7.481183
########## Ligand Apolar Desolv:            -2.753900
##########      Internal Energy:             0.000000
##########      Receptor Energy: 0.0
########## Receptor Desolvation:             0.000000
########## Receptor Hydrophobic:             0.000000
##########         Total Energy: -34.31
##########        Ligand Charge:            -1.000000
##########            Arbitrary:    +999.9990
##########     heavy atom count:   40
##########           pose count:    1
##########        Ligand Energy:             0.000000
# num electro vdwattr vdwrepu polsolv apolsol rdesolv rhydroe totalscore fullpol fullapo
#   1    0.26   -2.35    0.52    0.01    0.02    0.00    0.00      -1.54    0.01    0.03
#   2   -4.88   -2.31    0.32    0.98    0.62    0.00    0.00      -5.26    1.47    0.93
#   3    1.74   -2.16    0.32   -0.21   -0.18    0.00    0.00      -0.50   -0.36   -0.31
#   4   -2.93   -1.89    0.28    0.12   -0.20    0.00    0.00      -4.64    0.24   -0.42
#   5   -0.35   -1.44    0.17    0.00   -0.19    0.00    0.00      -1.81    0.00   -0.45
#   6    0.29   -1.73    0.30    0.04   -0.16    0.00    0.00      -1.25    0.10   -0.37
#   7   -2.11   -0.92    0.12   -0.05   -0.17    0.00    0.00      -3.14   -0.12   -0.44
#   8    9.31   -1.17    0.18   -0.06    0.78    0.00    0.00       9.03   -0.19    2.32
#   9   -5.82   -0.69    0.06   -0.20   -0.15    0.00    0.00      -6.81   -0.87   -0.65
#  10    3.18   -0.45    0.01    0.48    0.07    0.00    0.00       3.29    2.34    0.32
#  11    1.46   -0.74    0.07    0.02   -0.10    0.00    0.00       0.70    0.07   -0.41
#  12    0.79   -1.60    0.60   -0.05   -0.18    0.00    0.00      -0.45   -0.11   -0.44
#  13    1.26   -1.62    0.29   -0.08   -0.21    0.00    0.00      -0.35   -0.17   -0.47
#  14    0.89   -1.38    0.57    0.00   -0.14    0.00    0.00      -0.06    0.00   -0.47
#  15    1.82   -0.82    0.27    0.01   -0.06    0.00    0.00       1.22    0.08   -0.34
#  16    0.64   -0.53    0.04    0.01   -0.07    0.00    0.00       0.10    0.04   -0.39
#  17   -0.44   -0.22    0.01    0.00   -0.04    0.00    0.00      -0.70   -0.02   -0.26
#  18    0.96   -0.18    0.00   -0.01    0.01    0.00    0.00       0.79   -0.14    0.16
#  19   -0.51    0.00    0.00   -0.07    0.01    0.00    0.00      -0.58   -1.73    0.33
#  20    0.08   -0.09    0.00   -0.02   -0.02    0.00    0.00      -0.04   -0.42   -0.41
#  21   -0.01   -0.29    0.05   -0.02   -0.04    0.00    0.00      -0.29   -0.13   -0.29
#  22   -0.25   -0.78    0.37    0.04   -0.04    0.00    0.00      -0.66    0.30   -0.30
#  23   -0.54   -0.66    0.18   -0.02   -0.06    0.00    0.00      -1.10   -0.14   -0.40
#  24   -0.69   -0.63    0.08    0.15   -0.09    0.00    0.00      -1.18    0.78   -0.46
#  25    0.13   -0.58    0.08    0.01   -0.05    0.00    0.00      -0.42    0.04   -0.30
#  26   -0.44   -0.35    0.01    1.07    0.10    0.00    0.00       0.40    6.36    0.62
#  27    0.07   -0.26    0.02   -0.22   -0.02    0.00    0.00      -0.41   -1.66   -0.12
#  28   -0.11   -0.13    0.00    0.11   -0.01    0.00    0.00      -0.14    1.46   -0.18
#  29   -0.21   -0.11    0.00    0.21   -0.01    0.00    0.00      -0.13    3.47   -0.24
#  30    0.54   -0.10    0.00   -0.54   -0.01    0.00    0.00      -0.10  -15.48   -0.16
#  31   -0.88   -0.13    0.00    1.36   -0.02    0.00    0.00       0.33   28.64   -0.41
#  32   -0.62   -0.04    0.00    0.66   -0.01    0.00    0.00      -0.02   30.38   -0.43
#  33    0.02   -0.13    0.01   -0.03   -0.01    0.00    0.00      -0.14   -0.43   -0.12
#  34   -0.32   -0.35    0.04    0.89    0.03    0.00    0.00       0.29    7.91    0.27
#  35    0.14   -0.67    0.16   -0.05   -0.04    0.00    0.00      -0.45   -0.34   -0.30
#  36   -0.19   -0.73    0.24    0.45   -0.06    0.00    0.00      -0.28    3.30   -0.40
#  37    0.51   -0.38    0.05   -1.30   -0.02    0.00    0.00      -1.14  -12.06   -0.15
#  38   -0.58   -0.61    0.11    2.01   -0.04    0.00    0.00       0.88   14.58   -0.30
#  39   -0.42   -0.08    0.00    1.06   -0.03    0.00    0.00       0.52   24.38   -0.59
#  40    0.02   -2.60    0.81    0.07   -0.23    0.00    0.00      -1.93    0.14   -0.45
#  41   -1.03   -2.67    0.81    0.39   -0.26    0.00    0.00      -2.77    0.69   -0.46
#  42    0.50   -1.14    0.88    0.08   -0.19    0.00    0.00       0.13    0.11   -0.27
#  43    0.54   -1.15    0.78    0.05   -0.16    0.00    0.00       0.05    0.08   -0.27
#  44    0.80   -0.68    0.19    0.11   -0.16    0.00    0.00       0.26    0.18   -0.28
#  45    2.56   -0.58    0.32    0.06   -0.08    0.00    0.00       2.28    0.15   -0.22
#  46    0.73   -0.21    0.02    0.08   -0.07    0.00    0.00       0.55    0.35   -0.28
#  47   -1.18   -0.29    0.05   -0.03   -0.07    0.00    0.00      -1.52   -0.13   -0.28
#  48   -1.51   -0.37    0.06   -0.01   -0.09    0.00    0.00      -1.92   -0.03   -0.28
#  49   -5.76   -0.03    0.00    0.30    0.14    0.00    0.00      -5.36    0.97    0.44
#  50   -0.96   -0.84    1.47    0.28   -0.09    0.00    0.00      -0.13    0.71   -0.22
#  51   -0.88   -0.52    0.13    0.27   -0.13    0.00    0.00      -1.12    0.59   -0.28
#  52   -1.16   -0.25    0.05    0.04   -0.07    0.00    0.00      -1.39    0.18   -0.28
#  53   -1.18   -0.09    0.01    0.00   -0.02    0.00    0.00      -1.28    0.00   -0.18
#  54   -1.70   -0.07    0.00   -0.02   -0.02    0.00    0.00      -1.81   -0.35   -0.26
#  55   -1.24   -0.07    0.00    0.04   -0.02    0.00    0.00      -1.28    0.57   -0.23
#  56    0.02   -0.02    0.00    0.01   -0.01    0.00    0.00       0.01    0.55   -0.23
#  57   -0.13   -0.02    0.00    0.04   -0.01    0.00    0.00      -0.11    1.86   -0.28
#  58   -0.22   -0.03    0.00    0.03   -0.01    0.00    0.00      -0.23    0.84   -0.18
#  59   -0.15   -0.17    0.07   -0.07   -0.02    0.00    0.00      -0.34   -0.60   -0.20
#  60    0.00   -0.05    0.00    0.05   -0.01    0.00    0.00      -0.01    1.05   -0.27
#  61    0.65   -0.08    0.01    0.08   -0.02    0.00    0.00       0.62    0.93   -0.28
#  62    1.13   -0.16    0.03   -0.18   -0.04    0.00    0.00       0.78   -1.22   -0.28
#  63    0.14   -0.19    0.04   -0.27   -0.04    0.00    0.00      -0.32   -1.83   -0.28
#  64    0.09   -0.02    0.00   -0.04   -0.01    0.00    0.00       0.03   -2.00   -0.28
#  65    0.11   -0.05    0.00   -0.05   -0.01    0.00    0.00      -0.01   -1.08   -0.28
#  66    0.09   -0.06    0.00   -0.12   -0.01    0.00    0.00      -0.10   -2.18   -0.27
#  67    0.06   -0.02    0.00   -0.04   -0.01    0.00    0.00      -0.01   -2.42   -0.28
#  68    0.08   -0.01    0.00   -0.02    0.00    0.00    0.00       0.04   -1.36   -0.28
#  69    0.12   -0.03    0.00   -0.06   -0.01    0.00    0.00       0.03   -2.73   -0.28
#  70   -0.73   -0.52    0.11   -0.09   -0.14    0.00    0.00      -1.36   -0.18   -0.28
#  71    0.71   -0.52    0.09   -0.23   -0.13    0.00    0.00      -0.08   -0.49   -0.28

@<TRIPOS>MOLECULE
       AVX38786_0        77
   71    74     0     0     0



@<TRIPOS>ATOM
      1 C1          9.3313   -25.6632    -0.9849 C.3        1           0.0258
      2 O1          8.1308   -25.5668    -0.2157 O.3        1          -0.3161
      3 C2          7.3033   -24.5248    -0.4915 C.ar       1           0.1381
      4 C3          6.1234   -24.3671     0.2211 C.ar       1          -0.2113
      5 C4          5.2841   -23.3066    -0.0608 C.ar       1          -0.0580
      6 C5          5.6188   -22.4033    -1.0525 C.ar       1          -0.1532
      7 C6          4.7011   -21.2477    -1.3582 C.3        1           0.1661
      8 N1          3.7383   -21.6476    -2.3874 N.am       1          -0.7176
      9 C7          2.5599   -22.1962    -2.0311 C.2        1           0.5590
     10 O2          2.2959   -22.3591    -0.8557 O.2        1          -0.5337
     11 C8          1.5882   -22.5999    -3.0697 C.ar       1          -0.1207
     12 C9          2.0362   -23.0193    -4.3235 C.ar       1          -0.0735
     13 C10         1.1243   -23.3951    -5.2880 C.ar       1          -0.1169
     14 C11        -0.2314   -23.3562    -5.0153 C.ar       1          -0.0706
     15 C12        -0.6823   -22.9416    -3.7746 C.ar       1          -0.1430
     16 C13         0.2196   -22.5687    -2.7990 C.ar       1          -0.0522
     17 C14        -0.2728   -22.1227    -1.4464 C.3        1           0.0506
     18 N2         -0.3731   -23.2852    -0.5539 N.4        1          -0.3733
     19 H1          0.4161   -23.8950    -0.7060 H          1           0.4294
     20 C15        -1.6169   -24.0139    -0.8371 C.3        1          -0.0635
     21 C16        -0.3789   -22.8310     0.8430 C.3        1           0.0591
     22 C17         0.0090   -23.9745     1.7447 C.ar       1          -0.1327
     23 C18         1.0808   -24.7758     1.4196 C.ar       1          -0.1132
     24 C19         1.4420   -25.8297     2.2423 C.ar       1          -0.1203
     25 C20         0.7297   -26.0914     3.4022 C.ar       1           0.0658
     26 O3          1.0985   -27.1384     4.1905 O.3        1          -0.2952
     27 C21         0.5947   -27.1432     5.5307 C.3        1           0.0499
     28 C22         0.8003   -28.5253     6.1540 C.3        1          -0.0841
     29 C23         0.7395   -28.4115     7.6785 C.3        1          -0.1800
     30 C24         0.9419   -29.7727     8.2924 C.2        1           0.4902
     31 O4          1.9735   -30.3882     8.0839 O.co2      1          -0.6989
     32 O5          0.0741   -30.2586     8.9977 O.co2      1          -0.7065
     33 C25        -0.9035   -26.8149     5.4822 C.3        1           0.0173
     34 O6         -1.0605   -25.5252     4.8807 O.3        1          -0.2590
     35 C26        -0.3524   -25.2903     3.7464 C.ar       1           0.0885
     36 C27        -0.7159   -24.2196     2.9158 C.ar       1          -0.1256
     37 C28        -1.8580   -23.3623     3.2718 C.2        1           0.5226
     38 O7         -1.6831   -22.3635     3.9562 O.co2      1          -0.7091
     39 O8         -2.9821   -23.6484     2.8833 O.co2      1          -0.6285
     40 C29         6.7943   -22.5580    -1.7638 C.ar       1          -0.0575
     41 C30         7.6396   -23.6137    -1.4821 C.ar       1          -0.1532
     42 H2          9.8990   -26.5369    -0.6644 H          1           0.0569
     43 H3          9.0794   -25.7609    -2.0408 H          1           0.0573
     44 H4          9.9313   -24.7655    -0.8361 H          1           0.1023
     45 H5          5.8612   -25.0729     0.9954 H          1           0.1307
     46 H6          4.3655   -23.1835     0.4937 H          1           0.1275
     47 H7          4.1666   -20.9590    -0.4532 H          1           0.0820
     48 H8          5.2881   -20.4030    -1.7185 H          1           0.0798
     49 H9          3.9488   -21.5178    -3.3253 H          1           0.4024
     50 H10         3.0941   -23.0493    -4.5380 H          1           0.1330
     51 H11         1.4696   -23.7198    -6.2585 H          1           0.1375
     52 H12        -0.9414   -23.6511    -5.7739 H          1           0.1391
     53 H13        -1.7419   -22.9134    -3.5680 H          1           0.1297
     54 H14         0.4267   -21.4005    -1.0251 H          1           0.1509
     55 H15        -1.2540   -21.6594    -1.5514 H          1           0.1474
     56 H16        -1.6913   -24.8765    -0.1748 H          1           0.1217
     57 H17        -2.4694   -23.3549    -0.6727 H          1           0.1168
     58 H18        -1.6126   -24.3509    -1.8736 H          1           0.1162
     59 H19         0.3345   -22.0156     0.9630 H          1           0.1658
     60 H20        -1.3771   -22.4823     1.1076 H          1           0.1109
     61 H21         1.6426   -24.5814     0.5179 H          1           0.1286
     62 H22         2.2840   -26.4522     1.9780 H          1           0.1364
     63 H23         1.1174   -26.3918     6.1225 H          1           0.0818
     64 H24         0.0168   -29.1998     5.8086 H          1           0.0869
     65 H25         1.7734   -28.9167     5.8574 H          1           0.0748
     66 H26         1.5230   -27.7370     8.0240 H          1           0.0635
     67 H27        -0.2337   -28.0201     7.9751 H          1           0.0557
     68 H28        -1.4250   -27.5643     4.8866 H          1           0.0768
     69 H29        -1.3097   -26.8007     6.4936 H          1           0.1244
     70 H30         7.0537   -21.8507    -2.5377 H          1           0.1337
     71 H31         8.5595   -23.7321    -2.0355 H          1           0.1344
@<TRIPOS>BOND
     1    1    2 1
     2    1   42 1
     3    1   43 1
     4    1   44 1
     5    2    3 1
     6    3   41 ar
     7    3    4 ar
     8    4    5 ar
     9    4   45 1
    10    5    6 ar
    11    5   46 1
    12    6    7 1
    13    6   40 ar
    14    7    8 1
    15    7   47 1
    16    7   48 1
    17    8    9 am
    18    8   49 1
    19    9   10 2
    20    9   11 1
    21   11   16 ar
    22   11   12 ar
    23   12   13 ar
    24   12   50 1
    25   13   14 ar
    26   13   51 1
    27   14   15 ar
    28   14   52 1
    29   15   16 ar
    30   15   53 1
    31   16   17 1
    32   17   18 1
    33   17   54 1
    34   17   55 1
    35   18   19 1
    36   18   20 1
    37   18   21 1
    38   20   56 1
    39   20   57 1
    40   20   58 1
    41   21   22 1
    42   21   59 1
    43   21   60 1
    44   22   36 ar
    45   22   23 ar
    46   23   24 ar
    47   23   61 1
    48   24   25 ar
    49   24   62 1
    50   25   35 ar
    51   25   26 1
    52   26   27 1
    53   27   28 1
    54   27   33 1
    55   27   63 1
    56   28   29 1
    57   28   64 1
    58   28   65 1
    59   29   30 1
    60   29   66 1
    61   29   67 1
    62   30   31 1
    63   30   32 2
    64   33   34 1
    65   33   68 1
    66   33   69 1
    67   34   35 1
    68   35   36 ar
    69   36   37 1
    70   37   38 1
    71   37   39 2
    72   40   41 ar
    73   40   70 1
    74   41   71 1
