AVX38674_0, 3
##########                 Name:           AVX38674_0
##########          Protonation:                  100
##########               SMILES:   CN(Cc1ccc2c(c1C(=O)[O-])OCO2)C(=O)N[C@@H](c3ccccc3)C(=O)NCc4ccccc4
##########            Long Name:   1-phenyl-ethyl]carbamoyl-methyl-amino]methyl]-1,3-benzodioxole-4-carboxylate
##########          FlexRecCode: 1
##########               Number:                  776
##########   Ligand Source File: /raid1/people/rgc/Examples/sampl4/screening/ligands/build_1//sampl4-hivint-00000
##########           GlobalRank: 23
##########                 Rank:                    1
##########               Setnum:                  363
##########             Matchnum:                  575
##########                Cloud:                    1
##########        Electrostatic:           -12.417943
##########        Van der Waals:           -29.773123
##########  Ligand Polar Desolv:             8.636290
########## Ligand Apolar Desolv:            -3.317609
##########      Internal Energy:             0.000000
##########      Receptor Energy: 0.0
########## Receptor Desolvation:             0.000000
########## Receptor Hydrophobic:             0.000000
##########         Total Energy: -36.87
##########        Ligand Charge:            -1.000000
##########            Arbitrary:    +999.9990
##########     heavy atom count:   35
##########           pose count:    1
##########        Ligand Energy:             0.000000
# num electro vdwattr vdwrepu polsolv apolsol rdesolv rhydroe totalscore fullpol fullapo
#   1    0.14   -1.67    0.60   -0.32   -0.26    0.00    0.00      -1.51   -0.63   -0.51
#   2   -3.65   -1.21    0.20    3.61    0.41    0.00    0.00      -0.64   10.35    1.19
#   3    0.46   -0.42    0.03   -1.25   -0.07    0.00    0.00      -1.26   -5.43   -0.31
#   4   -0.05   -0.44    0.02    0.21   -0.07    0.00    0.00      -0.32    1.30   -0.41
#   5    0.11   -0.80    0.11    0.33   -0.10    0.00    0.00      -0.35    1.38   -0.42
#   6    0.07   -0.87    0.15    0.14   -0.12    0.00    0.00      -0.63    0.55   -0.47
#   7    0.00   -0.38    0.02   -0.04   -0.05    0.00    0.00      -0.46   -0.25   -0.33
#   8   -0.32   -0.25    0.01    0.72    0.08    0.00    0.00       0.24    4.79    0.52
#   9    0.19   -0.10    0.00   -0.20    0.00    0.00    0.00      -0.11   -2.97    0.02
#  10   -0.23   -0.08    0.00    0.35    0.01    0.00    0.00       0.07    9.21    0.34
#  11    0.07   -0.20    0.00   -0.06   -0.03    0.00    0.00      -0.21   -0.79   -0.32
#  12   -0.11   -0.23    0.01    0.58   -0.04    0.00    0.00       0.21    6.40   -0.41
#  13    0.52   -0.14    0.00   -1.03   -0.01    0.00    0.00      -0.66  -18.33   -0.17
#  14   -0.64   -0.14    0.00    1.96   -0.02    0.00    0.00       1.16   27.93   -0.33
#  15   -0.71   -0.08    0.00    1.21   -0.02    0.00    0.00       0.39   31.27   -0.56
#  16    7.02   -1.19    0.25   -3.80   -0.61    0.00    0.00       1.68  -11.96   -1.92
#  17   -7.79   -1.94    0.48    5.94    0.15    0.00    0.00      -3.16   14.56    0.37
#  18   -5.20   -0.58    0.04    1.67    0.34    0.00    0.00      -3.73    8.39    1.69
#  19    1.03   -0.38    0.03   -0.42   -0.05    0.00    0.00       0.21   -2.05   -0.25
#  20    4.49   -0.83    0.08   -1.39   -0.16    0.00    0.00       2.19   -5.18   -0.60
#  21   -6.85   -1.04    0.17    2.35    0.12    0.00    0.00      -5.25    7.21    0.38
#  22   -3.53   -1.06    0.20    1.43    0.70    0.00    0.00      -2.25    4.67    2.29
#  23    0.86   -0.94    0.11   -0.43   -0.18    0.00    0.00      -0.59   -1.05   -0.44
#  24   -0.78   -1.97    0.35    0.31   -0.18    0.00    0.00      -2.27    0.64   -0.37
#  25   -1.31   -2.15    0.29    0.36   -0.26    0.00    0.00      -3.07    0.62   -0.45
#  26   -1.36   -2.63    0.44    0.37   -0.31    0.00    0.00      -3.49    0.56   -0.47
#  27   -0.63   -3.31    1.00    0.28   -0.32    0.00    0.00      -2.98    0.41   -0.47
#  28   -0.19   -3.30    1.35    0.30   -0.30    0.00    0.00      -2.14    0.47   -0.47
#  29   -0.06   -2.69    0.90    0.26   -0.23    0.00    0.00      -1.82    0.50   -0.45
#  30   -0.10   -0.29    0.01    0.14   -0.04    0.00    0.00      -0.29    1.14   -0.33
#  31    0.38   -0.30    0.01    0.12   -0.05    0.00    0.00       0.16    1.04   -0.44
#  32    0.69   -0.25    0.00    0.08   -0.05    0.00    0.00       0.48    0.83   -0.47
#  33    0.23   -0.17    0.00    0.05   -0.04    0.00    0.00       0.08    0.71   -0.47
#  34   -0.05   -0.18    0.01    0.06   -0.04    0.00    0.00      -0.19    0.84   -0.47
#  35   -0.17   -0.24    0.01    0.10   -0.04    0.00    0.00      -0.34    1.04   -0.45
#  36    0.35   -0.49    0.09   -0.45   -0.16    0.00    0.00      -0.67   -0.81   -0.28
#  37    0.18   -0.89    0.73   -0.42   -0.10    0.00    0.00      -0.50   -0.93   -0.22
#  38   -0.59   -0.72    0.59   -0.36   -0.12    0.00    0.00      -1.20   -0.88   -0.28
#  39    0.17   -0.15    0.01   -0.15   -0.04    0.00    0.00      -0.17   -0.88   -0.23
#  40    0.29   -0.09    0.01   -0.18   -0.02    0.00    0.00       0.00   -1.82   -0.24
#  41   -0.25   -0.20    0.02   -0.59   -0.05    0.00    0.00      -1.07   -2.59   -0.21
#  42   -0.12   -0.32    0.11   -0.64   -0.08    0.00    0.00      -1.05   -2.28   -0.28
#  43    0.10   -0.01    0.00   -0.04    0.00    0.00    0.00       0.05   -2.36   -0.28
#  44    0.07   -0.04    0.00   -0.08   -0.01    0.00    0.00      -0.06   -1.64   -0.28
#  45    2.09   -0.01    0.00   -0.31    0.03    0.00    0.00       1.81   -4.21    0.37
#  46    0.55   -0.22    0.07   -0.21   -0.04    0.00    0.00       0.15   -1.25   -0.26
#  47    0.51   -0.02    0.00   -0.45    0.11    0.00    0.00       0.14   -2.25    0.55
#  48   -0.21   -0.33    0.05   -0.14   -0.08    0.00    0.00      -0.71   -0.50   -0.28
#  49    0.96   -0.38    0.11   -0.16   -0.09    0.00    0.00       0.44   -0.49   -0.28
#  50    2.27   -0.54    0.15   -0.27   -0.13    0.00    0.00       1.49   -0.59   -0.28
#  51    1.49   -0.55    0.06   -0.23   -0.18    0.00    0.00       0.59   -0.35   -0.28
#  52    0.05   -0.98    0.70   -0.13   -0.18    0.00    0.00      -0.54   -0.20   -0.28
#  53   -0.34   -0.68    0.29   -0.14   -0.17    0.00    0.00      -1.03   -0.23   -0.28
#  54   -0.79   -0.42    0.07   -0.19   -0.11    0.00    0.00      -1.45   -0.47   -0.28
#  55   -0.76   -0.08    0.00   -0.08   -0.02    0.00    0.00      -0.95   -0.92   -0.27
#  56   -1.30   -0.07    0.00   -0.05   -0.02    0.00    0.00      -1.44   -0.68   -0.28
#  57   -0.16   -0.03    0.00   -0.02   -0.01    0.00    0.00      -0.22   -0.58   -0.28
#  58    0.13   -0.02    0.00   -0.02   -0.01    0.00    0.00       0.08   -0.73   -0.28
#  59    0.35   -0.04    0.00   -0.04   -0.01    0.00    0.00       0.26   -1.02   -0.28

@<TRIPOS>MOLECULE
       AVX38674_0       100
   59    62     0     0     0



@<TRIPOS>ATOM
      1 C1          3.0951   -30.1582    -0.9219 C.3        1           0.0765
      2 N1          2.3982   -29.0117    -0.3337 N.am       1          -0.6274
      3 C2          1.4837   -29.2100     0.7935 C.3        1           0.1939
      4 C3          0.0930   -29.4672     0.2730 C.ar       1          -0.0518
      5 C4         -0.1410   -29.4912    -1.0840 C.ar       1          -0.1211
      6 C5         -1.4164   -29.7275    -1.5708 C.ar       1          -0.1017
      7 C6         -2.4708   -29.9422    -0.6994 C.ar       1          -0.0028
      8 O1         -3.7942   -30.1915    -0.9247 O.3        1          -0.3193
      9 C7         -4.2994   -30.7262     0.3132 C.3        1           0.2047
     10 O2         -3.4317   -30.1562     1.3110 O.3        1          -0.2769
     11 C8         -2.2509   -29.9211     0.6755 C.ar       1           0.0773
     12 C9         -0.9599   -29.6874     1.1681 C.ar       1          -0.1202
     13 C10        -0.7137   -29.6685     2.6189 C.2        1           0.5221
     14 O3         -0.4112   -30.7006     3.2016 O.co2      1          -0.6799
     15 O4         -0.8117   -28.6203     3.2423 O.co2      1          -0.6711
     16 C11         2.5983   -27.7746    -0.8296 C.2        1           0.7082
     17 O5          3.3573   -27.6099    -1.7651 O.2        1          -0.5758
     18 N2          1.9571   -26.7199    -0.2884 N.am       1          -0.7312
     19 C12         2.1744   -25.3751    -0.8273 C.3        1           0.1901
     20 C13         3.3261   -24.7245    -0.1051 C.2        1           0.5213
     21 O6          3.5586   -25.0132     1.0497 O.2        1          -0.5294
     22 N3          4.0977   -23.8218    -0.7425 N.am       1          -0.7189
     23 C14         5.2172   -23.1894    -0.0404 C.3        1           0.1621
     24 C15         6.5034   -23.5034    -0.7602 C.ar       1          -0.1100
     25 C16         7.2255   -24.6333    -0.4242 C.ar       1          -0.0996
     26 C17         8.4052   -24.9214    -1.0845 C.ar       1          -0.1218
     27 C18         8.8627   -24.0797    -2.0811 C.ar       1          -0.1119
     28 C19         8.1403   -22.9503    -2.4178 C.ar       1          -0.1221
     29 C20         6.9582   -22.6645    -1.7604 C.ar       1          -0.0985
     30 C21         0.9289   -24.5490    -0.6338 C.ar       1          -0.0955
     31 C22         0.6180   -23.5464    -1.5333 C.ar       1          -0.0952
     32 C23        -0.5246   -22.7888    -1.3558 C.ar       1          -0.1184
     33 C24        -1.3562   -23.0340    -0.2786 C.ar       1          -0.1151
     34 C25        -1.0457   -24.0372     0.6195 C.ar       1          -0.1170
     35 C26         0.0945   -24.7977     0.4397 C.ar       1          -0.1014
     36 H1          3.7265   -29.8178    -1.7426 H          1           0.0574
     37 H2          3.7135   -30.6365    -0.1621 H          1           0.0603
     38 H3          2.3640   -30.8737    -1.2985 H          1           0.0776
     39 H4          1.8146   -30.0645     1.3839 H          1           0.1139
     40 H5          1.4784   -28.3168     1.4185 H          1           0.1067
     41 H6          0.6741   -29.3245    -1.7723 H          1           0.1243
     42 H7         -1.5894   -29.7440    -2.6368 H          1           0.1224
     43 H8         -5.3296   -30.4091     0.4752 H          1           0.1233
     44 H9         -4.2270   -31.8137     0.3187 H          1           0.0744
     45 H10         1.3516   -26.8512     0.4581 H          1           0.4044
     46 H11         2.4042   -25.4425    -1.8908 H          1           0.1230
     47 H12         3.9118   -23.5909    -1.6660 H          1           0.4046
     48 H13         5.0682   -22.1099    -0.0170 H          1           0.0781
     49 H14         5.2689   -23.5713     0.9793 H          1           0.0789
     50 H15         6.8680   -25.2909     0.3545 H          1           0.1252
     51 H16         8.9697   -25.8037    -0.8215 H          1           0.1243
     52 H17         9.7849   -24.3044    -2.5965 H          1           0.1227
     53 H18         8.4979   -22.2926    -3.1962 H          1           0.1237
     54 H19         6.3919   -21.7841    -2.0259 H          1           0.1241
     55 H20         1.2678   -23.3548    -2.3743 H          1           0.1187
     56 H21        -0.7671   -22.0049    -2.0582 H          1           0.1218
     57 H22        -2.2485   -22.4415    -0.1403 H          1           0.1208
     58 H23        -1.6953   -24.2286     1.4609 H          1           0.1232
     59 H24         0.3352   -25.5839     1.1400 H          1           0.1241
@<TRIPOS>BOND
     1    1    2 1
     2    1   36 1
     3    1   37 1
     4    1   38 1
     5    2    3 1
     6    2   16 am
     7    3    4 1
     8    3   39 1
     9    3   40 1
    10    4   12 ar
    11    4    5 ar
    12    5    6 ar
    13    5   41 1
    14    6    7 ar
    15    6   42 1
    16    7   11 ar
    17    7    8 1
    18    8    9 1
    19    9   10 1
    20    9   43 1
    21    9   44 1
    22   10   11 1
    23   11   12 ar
    24   12   13 1
    25   13   14 1
    26   13   15 2
    27   16   17 2
    28   16   18 am
    29   18   19 1
    30   18   45 1
    31   19   20 1
    32   19   30 1
    33   19   46 1
    34   20   21 2
    35   20   22 am
    36   22   23 1
    37   22   47 1
    38   23   24 1
    39   23   48 1
    40   23   49 1
    41   24   29 ar
    42   24   25 ar
    43   25   26 ar
    44   25   50 1
    45   26   27 ar
    46   26   51 1
    47   27   28 ar
    48   27   52 1
    49   28   29 ar
    50   28   53 1
    51   29   54 1
    52   30   35 ar
    53   30   31 ar
    54   31   32 ar
    55   31   55 1
    56   32   33 ar
    57   32   56 1
    58   33   34 ar
    59   33   57 1
    60   34   35 ar
    61   34   58 1
    62   35   59 1
