AVX38748_0, 3
##########                 Name:           AVX38748_0
##########          Protonation:                  100
##########               SMILES:   1)C[C@H]([C@@H]2Cc3ccc4c(c3C(=O)[O-])OC[C@H](O4)CCC(=O)[O-])NC(=O)CCCC[NH3+]
##########            Long Name:   ]methyl]-2-(3-oxido-3-oxo-propyl)-2,3-dihydro-1,4-benzodioxine-5-carboxylate
##########          FlexRecCode: 1
##########               Number:                  296
##########   Ligand Source File: /raid1/people/rgc/Examples/sampl4/screening/ligands/build_1//sampl4-hivint-00000
##########           GlobalRank: 124
##########                 Rank:                    1
##########               Setnum:                    1
##########             Matchnum:                22573
##########                Cloud:                    1
##########        Electrostatic:            -9.906445
##########        Van der Waals:           -22.763893
##########  Ligand Polar Desolv:            16.323801
########## Ligand Apolar Desolv:            -2.859807
##########      Internal Energy:             0.000000
##########      Receptor Energy: 0.0
########## Receptor Desolvation:             0.000000
########## Receptor Hydrophobic:             0.000000
##########         Total Energy: -19.21
##########        Ligand Charge:            -1.000000
##########            Arbitrary:    +999.9990
##########     heavy atom count:   36
##########           pose count:    1
##########        Ligand Energy:             0.000000
# num electro vdwattr vdwrepu polsolv apolsol rdesolv rhydroe totalscore fullpol fullapo
#   1   -0.50   -0.06    0.00   -0.48    0.03    0.00    0.00      -1.02  -13.72    0.86
#   2    0.29    0.00    0.00    0.14    0.01    0.00    0.00       0.44   11.36    0.58
#   3    0.31    0.00    0.00    0.13    0.01    0.00    0.00       0.45   11.71    0.60
#   4    0.45    0.00    0.00    0.21    0.01    0.00    0.00       0.68    9.69    0.58
#   5   -0.01   -0.09    0.00    0.02   -0.03    0.00    0.00      -0.10    0.41   -0.49
#   6   -0.11   -0.13    0.01   -0.12   -0.02    0.00    0.00      -0.38   -1.48   -0.24
#   7   -0.02   -0.20    0.01   -0.02   -0.02    0.00    0.00      -0.25   -0.17   -0.19
#   8    0.57   -0.36    0.07    0.08   -0.04    0.00    0.00       0.33    0.49   -0.24
#   9   -2.77   -0.59    0.09   -0.83   -0.12    0.00    0.00      -4.22   -4.69   -0.66
#  10    0.67   -1.96    2.31    1.59    0.09    0.00    0.00       2.69    6.71    0.37
#  11    4.98   -0.37    0.01    1.25    0.27    0.00    0.00       6.14    8.95    1.96
#  12   -0.67   -0.31    0.01   -0.42   -0.04    0.00    0.00      -1.43   -2.41   -0.23
#  13    0.92   -0.45    0.03    0.17   -0.06    0.00    0.00       0.61    0.70   -0.27
#  14    0.84   -1.11    0.44    0.37   -0.11    0.00    0.00       0.43    1.43   -0.43
#  15    1.17   -1.75    0.77    0.42   -0.20    0.00    0.00       0.40    0.98   -0.47
#  16    0.77   -1.99    0.66    0.47   -0.21    0.00    0.00      -0.31    1.03   -0.47
#  17    0.23   -1.69    0.41    0.69   -0.18    0.00    0.00      -0.54    1.81   -0.47
#  18    0.03   -0.97    0.19    0.76   -0.12    0.00    0.00      -0.11    2.84   -0.45
#  19    0.12   -0.80    0.24    0.44   -0.07    0.00    0.00      -0.08    2.35   -0.39
#  20   -0.03   -0.28    0.01    0.06   -0.02    0.00    0.00      -0.26    0.37   -0.13
#  21   -0.45   -0.51    0.05    0.31   -0.04    0.00    0.00      -0.64    1.24   -0.17
#  22   -0.51   -1.04    0.27    0.11   -0.08    0.00    0.00      -1.25    0.43   -0.31
#  23   -1.70   -1.60    0.44    0.55   -0.15    0.00    0.00      -2.46    1.64   -0.45
#  24   -1.24   -1.60    0.44    0.39   -0.19    0.00    0.00      -2.21    0.96   -0.46
#  25    0.14   -1.35    0.42   -0.17   -0.10    0.00    0.00      -1.05   -0.52   -0.30
#  26   -0.38   -1.31    0.23    2.10    0.22    0.00    0.00       0.87    5.81    0.62
#  27    0.06   -0.62    0.07   -0.45   -0.03    0.00    0.00      -0.97   -1.64   -0.12
#  28   -0.08   -0.31    0.02    0.22   -0.03    0.00    0.00      -0.18    1.35   -0.18
#  29   -0.16   -0.14    0.00    0.22   -0.02    0.00    0.00      -0.10    2.48   -0.25
#  30    0.40   -0.12    0.00   -0.76   -0.01    0.00    0.00      -0.48  -13.35   -0.16
#  31   -0.58   -0.13    0.00    1.81   -0.03    0.00    0.00       1.08   26.92   -0.41
#  32   -0.58   -0.05    0.00    0.67   -0.01    0.00    0.00       0.03   25.31   -0.43
#  33    0.03   -0.46    0.04   -0.02   -0.03    0.00    0.00      -0.45   -0.10   -0.12
#  34   -0.48   -0.51    0.06    1.66    0.05    0.00    0.00       0.77    8.99    0.27
#  35    0.47   -1.13    0.52   -0.28   -0.06    0.00    0.00      -0.48   -1.31   -0.30
#  36   -1.29   -1.07    0.51    1.20   -0.09    0.00    0.00      -0.74    5.63   -0.41
#  37    4.57   -0.88    0.14   -4.44   -0.04    0.00    0.00      -0.66  -17.51   -0.16
#  38   -8.22   -1.57    0.30    9.29   -0.11    0.00    0.00      -0.29   25.52   -0.29
#  39   -3.07   -0.66    0.12    5.51   -0.11    0.00    0.00       1.78   30.38   -0.59
#  40    0.06   -0.01    0.00    0.03    0.00    0.00    0.00       0.08    2.82   -0.28
#  41    0.11   -0.06    0.00    0.09   -0.01    0.00    0.00       0.13    1.65   -0.28
#  42    0.12   -0.07    0.01    0.04   -0.02    0.00    0.00       0.08    0.56   -0.28
#  43    0.01   -0.02    0.00    0.03   -0.01    0.00    0.00       0.01    1.50   -0.28
#  44    0.01   -0.04    0.00    0.01   -0.01    0.00    0.00      -0.04    0.18   -0.28
#  45    0.04   -0.10    0.01    0.00   -0.02    0.00    0.00      -0.07   -0.01   -0.28
#  46   -0.37   -0.11    0.04   -0.04   -0.03    0.00    0.00      -0.51   -0.36   -0.28
#  47   -0.55   -0.20    0.10   -0.02   -0.04    0.00    0.00      -0.72   -0.13   -0.28
#  48   -3.44    0.00    0.00   -0.28    0.03    0.00    0.00      -3.70   -5.53    0.57
#  49   -0.14   -0.16    0.03   -0.18   -0.04    0.00    0.00      -0.49   -1.23   -0.25
#  50   -1.48   -0.13    0.00   -0.13   -0.04    0.00    0.00      -1.77   -1.00   -0.28
#  51   -0.60   -0.17    0.02   -0.17   -0.05    0.00    0.00      -0.96   -1.01   -0.28
#  52   -1.70   -0.36    0.06   -0.49   -0.12    0.00    0.00      -2.62   -1.12   -0.28
#  53   -0.56   -0.55    0.15   -0.52   -0.13    0.00    0.00      -1.61   -1.13   -0.28
#  54    0.10   -0.53    0.24   -0.68   -0.11    0.00    0.00      -0.97   -1.77   -0.28
#  55    0.19   -0.13    0.01   -0.22   -0.04    0.00    0.00      -0.18   -1.58   -0.27
#  56    0.16   -0.05    0.00   -0.03   -0.01    0.00    0.00       0.07   -0.54   -0.22
#  57    0.88   -0.28    0.13   -0.20   -0.04    0.00    0.00       0.48   -0.94   -0.20
#  58    0.42   -0.15    0.01   -0.25   -0.04    0.00    0.00      -0.01   -1.71   -0.27
#  59    1.38   -0.66    0.62   -0.82   -0.09    0.00    0.00       0.42   -2.44   -0.28
#  60    0.66   -0.36    0.04   -0.92   -0.11    0.00    0.00      -0.69   -2.40   -0.28
#  61    0.06   -0.31    0.08   -0.53   -0.07    0.00    0.00      -0.77   -2.03   -0.28
#  62    0.09   -0.05    0.00   -0.08   -0.01    0.00    0.00      -0.05   -1.82   -0.28
#  63    0.06   -0.18    0.03   -0.09   -0.04    0.00    0.00      -0.22   -0.56   -0.28
#  64    0.05   -0.06    0.00   -0.13   -0.02    0.00    0.00      -0.15   -1.81   -0.27
#  65    0.05   -0.02    0.00   -0.06   -0.01    0.00    0.00      -0.05   -2.39   -0.28
#  66    0.09   -0.06    0.00   -0.08   -0.02    0.00    0.00      -0.07   -1.16   -0.28
#  67    0.22   -0.31    0.07   -0.80   -0.08    0.00    0.00      -0.88   -2.94   -0.28

@<TRIPOS>MOLECULE
       AVX38748_0       100
   67    70     0     0     0



@<TRIPOS>ATOM
      1 N1         -2.8378   -24.7526     2.8196 N.4        1          -0.6384
      2 H1         -3.3604   -25.0037     1.9937 H          1           0.4319
      3 H2         -3.3085   -25.1106     3.6372 H          1           0.4353
      4 H3         -1.9113   -25.1484     2.7648 H          1           0.4399
      5 C1         -2.7407   -23.2897     2.9117 C.3        1          -0.0079
      6 C2         -2.0271   -22.7469     1.6720 C.3        1          -0.1558
      7 C3         -1.9259   -21.2233     1.7678 C.3        1          -0.0978
      8 C4         -1.2123   -20.6806     0.5282 C.3        1          -0.1462
      9 C5          0.1715   -21.2715     0.4459 C.2        1           0.5196
     10 O1          0.9643   -21.0866     1.3449 O.2        1          -0.5495
     11 N2          0.5281   -22.0057    -0.6266 N.am       1          -0.7065
     12 C6          1.8734   -22.5803    -0.7065 C.3        1           0.1476
     13 C7          2.5849   -22.1448    -1.9920 C.3        1          -0.0870
     14 C8          2.1321   -23.1368    -3.0340 C.ar       1          -0.1072
     15 C9          2.1105   -23.0594    -4.4161 C.ar       1          -0.1131
     16 C10         1.6395   -24.1216    -5.1630 C.ar       1          -0.1297
     17 C11         1.1889   -25.2649    -4.5295 C.ar       1          -0.1232
     18 C12         1.2102   -25.3434    -3.1506 C.ar       1          -0.0885
     19 C13         1.6817   -24.2792    -2.4009 C.ar       1          -0.0608
     20 C14         1.8148   -24.0982    -0.9095 C.3        1          -0.0350
     21 C15         3.1023   -24.7536    -0.4056 C.3        1          -0.0618
     22 C16         2.8704   -26.2294    -0.2074 C.ar       1          -0.0461
     23 C17         3.1065   -27.1088    -1.2406 C.ar       1          -0.1337
     24 C18         2.8966   -28.4669    -1.0661 C.ar       1          -0.1210
     25 C19         2.4476   -28.9565     0.1498 C.ar       1           0.0231
     26 O2          2.2503   -30.2944     0.3055 O.3        1          -0.3059
     27 C20         1.4366   -30.6995     1.4111 C.3        1           0.0551
     28 C21        -0.0256   -30.3405     1.1389 C.3        1          -0.0854
     29 C22        -0.8871   -30.7771     2.3255 C.3        1          -0.1738
     30 C23        -2.3273   -30.4236     2.0575 C.2        1           0.4896
     31 O3         -3.0569   -31.2228     1.4958 O.co2      1          -0.6933
     32 O4         -2.7630   -29.3384     2.4026 O.co2      1          -0.7153
     33 C24         1.9359   -29.9454     2.6493 C.3        1           0.0169
     34 O5          1.7608   -28.5473     2.3983 O.3        1          -0.2600
     35 C25         2.2036   -28.0820     1.2024 C.ar       1           0.0828
     36 C26         2.4207   -26.7076     1.0284 C.ar       1          -0.1357
     37 C27         2.1723   -25.7728     2.1377 C.2        1           0.5222
     38 O6          3.0724   -25.4986     2.9196 O.co2      1          -0.6804
     39 O7          1.0660   -25.2701     2.2778 O.co2      1          -0.6662
     40 H4         -3.7417   -22.8623     2.9711 H          1           0.1315
     41 H5         -2.1764   -23.0184     3.8037 H          1           0.1363
     42 H6         -1.0261   -23.1746     1.6126 H          1           0.0936
     43 H7         -2.5915   -23.0182     0.7798 H          1           0.0859
     44 H8         -2.9267   -20.7958     1.8274 H          1           0.0780
     45 H9         -1.3613   -20.9521     2.6600 H          1           0.0841
     46 H10        -1.7768   -20.9516    -0.3641 H          1           0.0995
     47 H11        -1.1403   -19.5950     0.5965 H          1           0.0921
     48 H12        -0.1060   -22.1537    -1.3455 H          1           0.4035
     49 H13         2.4608   -22.3240     0.1751 H          1           0.1014
     50 H14         2.2816   -21.1357    -2.2709 H          1           0.0773
     51 H15         3.6662   -22.1956    -1.8635 H          1           0.0726
     52 H16         2.4624   -22.1664    -4.9113 H          1           0.1121
     53 H17         1.6229   -24.0589    -6.2411 H          1           0.1168
     54 H18         0.8200   -26.0959    -5.1123 H          1           0.1198
     55 H19         0.8577   -26.2365    -2.6560 H          1           0.1312
     56 H20         0.9486   -24.5168    -0.3971 H          1           0.1088
     57 H21         3.8960   -24.6057    -1.1378 H          1           0.1174
     58 H22         3.3936   -24.3010     0.5422 H          1           0.0457
     59 H23         3.4567   -26.7376    -2.1922 H          1           0.1144
     60 H24         3.0840   -29.1483    -1.8829 H          1           0.1176
     61 H25         1.5312   -31.7742     1.5661 H          1           0.0697
     62 H26        -0.1157   -29.2630     1.0015 H          1           0.0824
     63 H27        -0.3634   -30.8513     0.2373 H          1           0.0737
     64 H28        -0.7971   -31.8546     2.4630 H          1           0.0620
     65 H29        -0.5495   -30.2663     3.2272 H          1           0.0486
     66 H30         1.3539   -30.2405     3.5223 H          1           0.0700
     67 H31         2.9912   -30.1625     2.8144 H          1           0.1150
@<TRIPOS>BOND
     1    1    2 1
     2    1    3 1
     3    1    4 1
     4    1    5 1
     5    5    6 1
     6    5   40 1
     7    5   41 1
     8    6    7 1
     9    6   42 1
    10    6   43 1
    11    7    8 1
    12    7   44 1
    13    7   45 1
    14    8    9 1
    15    8   46 1
    16    8   47 1
    17    9   10 2
    18    9   11 am
    19   11   12 1
    20   11   48 1
    21   12   20 1
    22   12   13 1
    23   12   49 1
    24   13   14 1
    25   13   50 1
    26   13   51 1
    27   14   19 ar
    28   14   15 ar
    29   15   16 ar
    30   15   52 1
    31   16   17 ar
    32   16   53 1
    33   17   18 ar
    34   17   54 1
    35   18   19 ar
    36   18   55 1
    37   19   20 1
    38   20   21 1
    39   20   56 1
    40   21   22 1
    41   21   57 1
    42   21   58 1
    43   22   36 ar
    44   22   23 ar
    45   23   24 ar
    46   23   59 1
    47   24   25 ar
    48   24   60 1
    49   25   35 ar
    50   25   26 1
    51   26   27 1
    52   27   28 1
    53   27   33 1
    54   27   61 1
    55   28   29 1
    56   28   62 1
    57   28   63 1
    58   29   30 1
    59   29   64 1
    60   29   65 1
    61   30   31 1
    62   30   32 2
    63   33   34 1
    64   33   66 1
    65   33   67 1
    66   34   35 1
    67   35   36 ar
    68   36   37 1
    69   37   38 1
    70   37   39 2
