AVX38781_1, 3
##########                 Name:           AVX38781_0
##########          Protonation:                   61
##########               SMILES:   C[NH+](Cc1ccccc1C(=O)NCC2CCCCC2)Cc3ccc4c(c3C(=O)[O-])OC[C@@H](O4)CCC(=O)[O-]
##########            Long Name:   ]methyl]-2-(3-oxido-3-oxo-propyl)-2,3-dihydro-1,4-benzodioxine-5-carboxylate
##########          FlexRecCode: 1
##########               Number:                  144
##########   Ligand Source File: /raid1/people/rgc/Examples/sampl4/screening/ligands/build_1//sampl4-hivint-00000
##########           GlobalRank: 72
##########                 Rank:                    1
##########               Setnum:                  289
##########             Matchnum:                 8428
##########                Cloud:                    1
##########        Electrostatic:           -15.847763
##########        Van der Waals:           -19.091833
##########  Ligand Polar Desolv:             9.781164
########## Ligand Apolar Desolv:            -2.676606
##########      Internal Energy:             0.000000
##########      Receptor Energy: 0.0
########## Receptor Desolvation:             0.000000
########## Receptor Hydrophobic:             0.000000
##########         Total Energy: -27.84
##########        Ligand Charge:            -1.000000
##########            Arbitrary:    +999.9990
##########     heavy atom count:   40
##########           pose count:    1
##########        Ligand Energy:             0.000000
# num electro vdwattr vdwrepu polsolv apolsol rdesolv rhydroe totalscore fullpol fullapo
#   1   -0.54   -0.06    0.00    0.81   -0.01    0.00    0.00       0.20   29.26   -0.41
#   2    0.39   -0.08    0.00   -0.49    0.00    0.00    0.00      -0.18  -16.43   -0.16
#   3   -0.58   -0.08    0.00    1.33   -0.02    0.00    0.00       0.65   31.33   -0.43
#   4   -0.13   -0.04    0.00    0.11   -0.01    0.00    0.00      -0.07    3.92   -0.25
#   5   -0.07   -0.09    0.00    0.09   -0.01    0.00    0.00      -0.08    1.46   -0.18
#   6    0.04   -0.10    0.00   -0.13   -0.01    0.00    0.00      -0.19   -1.84   -0.12
#   7    0.01   -0.03    0.00   -0.02    0.00    0.00    0.00      -0.04   -0.78   -0.12
#   8   -0.13   -0.05    0.00    0.24    0.01    0.00    0.00       0.07    8.83    0.27
#   9   -0.02   -0.11    0.00   -0.03   -0.01    0.00    0.00      -0.17   -0.69   -0.30
#  10    0.24   -0.16    0.00    0.19   -0.02    0.00    0.00       0.25    2.83   -0.30
#  11   -0.85   -0.22    0.02   -1.15   -0.01    0.00    0.00      -2.22  -13.17   -0.15
#  12    0.16   -0.39    0.12    2.97   -0.07    0.00    0.00       2.79   26.22   -0.59
#  13    0.85   -0.19    0.01    1.44   -0.02    0.00    0.00       2.08   14.56   -0.25
#  14    0.78   -0.30    0.01    0.06   -0.03    0.00    0.00       0.52    0.49   -0.23
#  15   -0.93   -0.47    0.08   -0.03   -0.06    0.00    0.00      -1.40   -0.16   -0.28
#  16    4.71   -0.39    0.01    0.03    0.01    0.00    0.00       4.38    0.14    0.07
#  17   -3.30    0.00    0.00   -0.15    0.02    0.00    0.00      -3.44   -2.88    0.30
#  18   -0.62   -0.57    0.05    0.04   -0.10    0.00    0.00      -1.20    0.13   -0.37
#  19    2.80   -0.99    0.17    0.18   -0.10    0.00    0.00       2.06    0.62   -0.35
#  20    2.56   -1.14    0.15    0.25   -0.11    0.00    0.00       1.71    0.76   -0.34
#  21   -0.26   -0.42    0.03    0.02   -0.06    0.00    0.00      -0.69    0.07   -0.28
#  22    0.62   -0.77    0.10   -0.05   -0.08    0.00    0.00      -0.19   -0.22   -0.31
#  23    1.45   -1.04    0.09   -0.23   -0.13    0.00    0.00       0.14   -0.67   -0.39
#  24    1.04   -1.84    0.44   -0.23   -0.20    0.00    0.00      -0.79   -0.54   -0.47
#  25    0.09   -2.02    0.54   -0.14   -0.19    0.00    0.00      -1.72   -0.34   -0.47
#  26   -0.44   -1.07    0.08    0.02   -0.16    0.00    0.00      -1.57    0.05   -0.44
#  27   -0.14   -0.76    0.08    0.11   -0.10    0.00    0.00      -0.80    0.44   -0.40
#  28    2.21   -0.54    0.04   -0.92   -0.12    0.00    0.00       0.66   -4.70   -0.63
#  29   -3.09   -0.73    0.10    1.71    0.05    0.00    0.00      -1.95    7.21    0.21
#  30   -2.48   -0.42    0.03    1.00    0.32    0.00    0.00      -1.55    6.83    2.20
#  31    0.32   -0.15    0.00   -0.22   -0.04    0.00    0.00      -0.09   -2.39   -0.38
#  32   -0.27   -0.20    0.01    0.10   -0.02    0.00    0.00      -0.38    0.87   -0.15
#  33   -0.71   -0.43    0.05    0.18   -0.05    0.00    0.00      -0.96    0.87   -0.22
#  34   -0.37   -0.47    0.04    0.16   -0.06    0.00    0.00      -0.69    0.71   -0.25
#  35   -0.18   -0.18    0.00    0.13   -0.03    0.00    0.00      -0.25    1.18   -0.25
#  36   -0.14   -0.08    0.00    0.06   -0.01    0.00    0.00      -0.17    1.26   -0.25
#  37   -0.13   -0.09    0.00    0.10   -0.01    0.00    0.00      -0.13    1.80   -0.22
#  38    0.55   -0.41    0.02    0.04   -0.06    0.00    0.00       0.13    0.24   -0.39
#  39    0.05   -0.57    0.09    0.26   -0.08    0.00    0.00      -0.25    1.56   -0.46
#  40    0.04   -0.28    0.02    0.02   -0.03    0.00    0.00      -0.24    0.14   -0.30
#  41   -0.29   -0.32    0.03    0.98    0.08    0.00    0.00       0.49    7.69    0.62
#  42    0.05   -0.01    0.00   -0.04    0.00    0.00    0.00      -0.01   -2.26   -0.27
#  43    0.03   -0.01    0.00   -0.02    0.00    0.00    0.00       0.01   -2.46   -0.28
#  44    0.07   -0.02    0.00   -0.04   -0.01    0.00    0.00       0.01   -2.18   -0.28
#  45    0.07   -0.06    0.00   -0.09   -0.02    0.00    0.00      -0.09   -1.31   -0.28
#  46    0.06   -0.03    0.00   -0.06   -0.01    0.00    0.00      -0.04   -1.81   -0.28
#  47    0.07    0.00    0.00   -0.03    0.00    0.00    0.00       0.03   -2.97   -0.28
#  48    0.05   -0.01    0.00   -0.02    0.00    0.00    0.00       0.01   -1.54   -0.28
#  49   -2.50   -0.43    0.51    0.21   -0.05    0.00    0.00      -2.26    1.09   -0.27
#  50   -2.33   -0.16    0.02   -0.12   -0.03    0.00    0.00      -2.62   -0.65   -0.15
#  51   -2.50   -0.14    0.00    0.11   -0.02    0.00    0.00      -2.55    0.94   -0.20
#  52   -3.73   -0.40    0.18    0.61   -0.08    0.00    0.00      -3.42    2.19   -0.28
#  53   -1.68   -0.31    0.23   -0.12   -0.05    0.00    0.00      -1.92   -0.56   -0.22
#  54   -2.14   -0.37    0.11   -0.04   -0.07    0.00    0.00      -2.51   -0.13   -0.27
#  55   -1.43   -0.19    0.02   -0.11   -0.06    0.00    0.00      -1.77   -0.50   -0.28
#  56   -1.01   -0.11    0.01    0.00   -0.01    0.00    0.00      -1.13    0.01   -0.14
#  57   -1.98   -0.18    0.01    0.44   -0.05    0.00    0.00      -1.76    2.24   -0.27
#  58   -3.02   -0.23    0.03    0.57   -0.06    0.00    0.00      -2.72    2.47   -0.28
#  59   -2.21   -0.67    0.41    0.58   -0.11    0.00    0.00      -2.01    1.54   -0.28
#  60    0.32   -0.96    0.95    0.30   -0.11    0.00    0.00       0.49    0.74   -0.28
#  61    1.61   -0.23    0.02    0.00   -0.05    0.00    0.00       1.35    0.01   -0.22
#  62    1.46   -0.01    0.00   -0.25    0.04    0.00    0.00       1.24   -2.29    0.38
#  63    0.09   -0.03    0.00    0.00   -0.01    0.00    0.00       0.06    0.16   -0.28
#  64    0.23   -0.04    0.00   -0.01   -0.01    0.00    0.00       0.16   -0.34   -0.28
#  65    0.14   -0.10    0.01   -0.08   -0.02    0.00    0.00      -0.06   -0.97   -0.28
#  66    0.44   -0.16    0.03   -0.04   -0.04    0.00    0.00       0.24   -0.33   -0.28
#  67    0.57   -0.18    0.02   -0.10   -0.04    0.00    0.00       0.27   -0.57   -0.24
#  68    0.18   -0.28    0.06   -0.11   -0.06    0.00    0.00      -0.21   -0.48   -0.28
#  69    0.21   -0.19    0.03   -0.08   -0.05    0.00    0.00      -0.08   -0.46   -0.28
#  70    0.10   -0.06    0.00   -0.02   -0.02    0.00    0.00       0.01   -0.38   -0.28
#  71    0.08   -0.04    0.00   -0.02   -0.01    0.00    0.00       0.01   -0.67   -0.28
#  72    0.07   -0.01    0.00   -0.01   -0.01    0.00    0.00       0.04   -0.62   -0.28
#  73    0.07   -0.03    0.00   -0.02   -0.01    0.00    0.00       0.01   -0.82   -0.28
#  74    0.07   -0.01    0.00   -0.01   -0.01    0.00    0.00       0.04   -0.56   -0.28
#  75    0.08   -0.03    0.00   -0.02   -0.01    0.00    0.00       0.03   -0.51   -0.28
#  76   -0.82   -0.11    0.00    0.00   -0.03    0.00    0.00      -0.96    0.01   -0.28
#  77    0.14   -0.32    0.17   -0.36   -0.06    0.00    0.00      -0.43   -1.82   -0.28

@<TRIPOS>MOLECULE
       AVX38781_0        61
   77    80     0     0     0



@<TRIPOS>ATOM
      1 O1         -5.7753   -30.4139     0.7216 O.co2      1          -0.7003
      2 C1         -6.3434   -29.8732    -0.2119 C.2        1           0.4908
      3 O2         -7.1757   -30.4873    -0.8573 O.co2      1          -0.7067
      4 C2         -6.0214   -28.4438    -0.5640 C.3        1          -0.1802
      5 C3         -4.5373   -28.3274    -0.9173 C.3        1          -0.0812
      6 C4         -4.2103   -26.8763    -1.2749 C.3        1           0.0498
      7 C5         -4.0056   -26.0604     0.0088 C.3        1           0.0209
      8 O3         -3.6868   -24.7146    -0.3616 O.3        1          -0.2601
      9 C6         -2.7552   -24.5540    -1.3360 C.ar       1           0.0919
     10 C7         -2.1311   -23.3076    -1.4946 C.ar       1          -0.0914
     11 C8         -2.4822   -22.1866    -0.6078 C.2        1           0.5283
     12 O4         -3.3894   -21.4253    -0.9143 O.co2      1          -0.6372
     13 O5         -1.8668   -22.0161     0.4356 O.co2      1          -0.7102
     14 C9         -1.1728   -23.1357    -2.4992 C.ar       1          -0.1133
     15 C10        -0.4974   -21.8002    -2.6769 C.3        1           0.0605
     16 N1          0.7169   -21.7520    -1.8516 N.4        1          -0.3535
     17 H1          0.5362   -22.1910    -0.9613 H          1           0.4371
     18 C11         1.1078   -20.3523    -1.6370 C.3        1           0.0285
     19 C12         0.2611   -19.7565    -0.5419 C.2        1          -0.1681
     20 C13         0.8273   -19.2905     0.5437 C.2        1          -0.1476
     21 C14         1.8035   -22.4642    -2.5373 C.3        1           0.0230
     22 C15         3.0492   -22.4148    -1.6907 C.ar       1          -0.0836
     23 C16         3.9434   -21.3742    -1.8366 C.ar       1          -0.1053
     24 C17         5.0875   -21.3274    -1.0602 C.ar       1          -0.0944
     25 C18         5.3430   -22.3224    -0.1329 C.ar       1          -0.1038
     26 C19         4.4570   -23.3680     0.0231 C.ar       1          -0.0835
     27 C20         3.2979   -23.4184    -0.7534 C.ar       1          -0.1084
     28 C21         2.3410   -24.5331    -0.5875 C.2        1           0.5386
     29 O6          2.4657   -25.5448    -1.2494 O.2        1          -0.5109
     30 N2          1.3303   -24.4273     0.2978 N.am       1          -0.7104
     31 C22         0.3820   -25.5319     0.4623 C.3        1           0.1204
     32 C23         0.4240   -26.0290     1.9087 C.3        1          -0.0951
     33 C24         1.8361   -26.5156     2.2400 C.3        1          -0.1152
     34 C25         1.8780   -27.0127     3.6864 C.3        1          -0.1170
     35 C26         0.8878   -28.1662     3.8581 C.3        1          -0.1228
     36 C27        -0.5244   -27.6796     3.5269 C.3        1          -0.1165
     37 C28        -0.5664   -27.1825     2.0804 C.3        1          -0.1158
     38 C29        -0.8476   -24.1878    -3.3261 C.ar       1          -0.1142
     39 C30        -1.4630   -25.4184    -3.1680 C.ar       1          -0.1216
     40 C31        -2.4134   -25.6063    -2.1766 C.ar       1           0.0630
     41 O7         -2.9980   -26.8277    -2.0351 O.3        1          -0.2988
     42 H2         -6.6235   -28.1356    -1.4189 H          1           0.0631
     43 H3         -6.2436   -27.8008     0.2876 H          1           0.0558
     44 H4         -3.9351   -28.6356    -0.0625 H          1           0.0844
     45 H5         -4.3150   -28.9703    -1.7690 H          1           0.0718
     46 H6         -5.0266   -26.4482    -1.8568 H          1           0.0794
     47 H7         -4.9203   -26.0717     0.6014 H          1           0.1187
     48 H8         -3.1863   -26.4861     0.5882 H          1           0.0701
     49 H9         -0.2303   -21.6646    -3.7249 H          1           0.1023
     50 H10        -1.1774   -21.0055    -2.3697 H          1           0.1587
     51 H11         2.1581   -20.3085    -1.3489 H          1           0.1117
     52 H12         0.9599   -19.7885    -2.5579 H          1           0.1197
     53 H13        -0.8124   -19.7137    -0.6521 H          1           0.1406
     54 H14         1.9009   -19.3334     0.6539 H          1           0.0937
     55 H15         0.2206   -18.8636     1.3285 H          1           0.1120
     56 H16         1.5134   -23.5028    -2.6966 H          1           0.1637
     57 H17         1.9987   -21.9898    -3.4991 H          1           0.1183
     58 H18         3.7500   -20.5948    -2.5587 H          1           0.1373
     59 H19         5.7844   -20.5109    -1.1785 H          1           0.1358
     60 H20         6.2384   -22.2803     0.4696 H          1           0.1363
     61 H21         4.6575   -24.1438     0.7472 H          1           0.1330
     62 H22         1.2307   -23.6199     0.8261 H          1           0.3968
     63 H23        -0.6240   -25.1852     0.2263 H          1           0.0821
     64 H24         0.6528   -26.3463    -0.2097 H          1           0.0723
     65 H25         0.1532   -25.2145     2.5808 H          1           0.0749
     66 H26         2.1068   -27.3299     1.5679 H          1           0.0674
     67 H27         2.5417   -25.6938     2.1175 H          1           0.0551
     68 H28         2.8841   -27.3593     3.9224 H          1           0.0602
     69 H29         1.6074   -26.1983     4.3584 H          1           0.0591
     70 H30         1.1585   -28.9806     3.1860 H          1           0.0651
     71 H31         0.9176   -28.5204     4.8886 H          1           0.0600
     72 H32        -1.2300   -28.5014     3.6492 H          1           0.0661
     73 H33        -0.7951   -26.8653     4.1989 H          1           0.0596
     74 H34        -1.5724   -26.8359     1.8444 H          1           0.0705
     75 H35        -0.2957   -27.9969     1.4084 H          1           0.0693
     76 H36        -0.1089   -24.0524    -4.1023 H          1           0.1201
     77 H37        -1.2012   -26.2370    -3.8220 H          1           0.1288
@<TRIPOS>BOND
     1    1    2 1
     2    2    3 2
     3    2    4 1
     4    4    5 1
     5    4   42 1
     6    4   43 1
     7    5    6 1
     8    5   44 1
     9    5   45 1
    10    6   41 1
    11    6    7 1
    12    6   46 1
    13    7    8 1
    14    7   47 1
    15    7   48 1
    16    8    9 1
    17    9   40 ar
    18    9   10 ar
    19   10   11 1
    20   10   14 ar
    21   11   12 1
    22   11   13 2
    23   14   15 1
    24   14   38 ar
    25   15   16 1
    26   15   49 1
    27   15   50 1
    28   16   17 1
    29   16   18 1
    30   16   21 1
    31   18   19 1
    32   18   51 1
    33   18   52 1
    34   19   20 2
    35   19   53 1
    36   20   54 1
    37   20   55 1
    38   21   22 1
    39   21   56 1
    40   21   57 1
    41   22   27 ar
    42   22   23 ar
    43   23   24 ar
    44   23   58 1
    45   24   25 ar
    46   24   59 1
    47   25   26 ar
    48   25   60 1
    49   26   27 ar
    50   26   61 1
    51   27   28 1
    52   28   29 2
    53   28   30 am
    54   30   31 1
    55   30   62 1
    56   31   32 1
    57   31   63 1
    58   31   64 1
    59   32   37 1
    60   32   33 1
    61   32   65 1
    62   33   34 1
    63   33   66 1
    64   33   67 1
    65   34   35 1
    66   34   68 1
    67   34   69 1
    68   35   36 1
    69   35   70 1
    70   35   71 1
    71   36   37 1
    72   36   72 1
    73   36   73 1
    74   37   74 1
    75   37   75 1
    76   38   39 ar
    77   38   76 1
    78   39   40 ar
    79   39   77 1
    80   40   41 1
