AVX38708_1, 3
##########                 Name:           AVX38708_0
##########          Protonation:                   76
##########               SMILES:   C[NH+](Cc1ccccc1C(=O)NCc2ccccc2)Cc3ccc4c(c3C(=O)[O-])OCO4
##########            Long Name:   arbamoyl)phenyl]methyl-methyl-ammonio]methyl]-1,3-benzodioxole-4-carboxylate
##########          FlexRecCode: 1
##########               Number:                  354
##########   Ligand Source File: /raid1/people/rgc/Examples/sampl4/screening/ligands/build_1//sampl4-hivint-00000
##########           GlobalRank: 33
##########                 Rank:                    1
##########               Setnum:                   44
##########             Matchnum:                 5279
##########                Cloud:                    1
##########        Electrostatic:            -7.225010
##########        Van der Waals:           -27.784946
##########  Ligand Polar Desolv:             4.384768
########## Ligand Apolar Desolv:            -3.607948
##########      Internal Energy:             0.000000
##########      Receptor Energy: 0.0
########## Receptor Desolvation:             0.000000
########## Receptor Hydrophobic:             0.000000
##########         Total Energy: -34.23
##########        Ligand Charge:             0.000000
##########            Arbitrary:    +999.9990
##########     heavy atom count:   32
##########           pose count:    1
##########        Ligand Energy:             0.000000
# num electro vdwattr vdwrepu polsolv apolsol rdesolv rhydroe totalscore fullpol fullapo
#   1    0.04   -0.12    0.00   -0.09   -0.03    0.00    0.00      -0.21   -1.21   -0.41
#   2    1.63   -0.21    0.00   -0.40    0.02    0.00    0.00       1.04   -3.79    0.16
#   3   -2.81    0.00    0.00    0.28    0.02    0.00    0.00      -2.52    5.10    0.33
#   4   -0.06   -0.39    0.09    0.06   -0.04    0.00    0.00      -0.35    0.41   -0.30
#   5    0.78   -0.70    0.07   -0.19   -0.06    0.00    0.00      -0.09   -0.87   -0.30
#   6    1.65   -0.86    0.07   -0.35   -0.12    0.00    0.00       0.39   -1.20   -0.40
#   7    2.57   -1.54    0.28   -0.43   -0.18    0.00    0.00       0.70   -1.14   -0.47
#   8    3.24   -1.90    0.66   -0.54   -0.19    0.00    0.00       1.26   -1.31   -0.47
#   9    1.60   -1.34    0.22   -0.33   -0.16    0.00    0.00      -0.01   -0.93   -0.44
#  10    1.23   -0.79    0.05   -0.38   -0.11    0.00    0.00       0.00   -1.35   -0.40
#  11   -0.50   -0.81    0.08    1.11   -0.18    0.00    0.00      -0.30    3.91   -0.63
#  12   -0.37   -0.92    0.29   -0.56    0.07    0.00    0.00      -1.49   -2.48    0.29
#  13   -3.41   -1.14    0.08   -1.89    0.87    0.00    0.00      -5.48   -5.02    2.32
#  14    2.06   -1.04    0.18    0.32   -0.18    0.00    0.00       1.34    0.77   -0.44
#  15   -1.48   -2.06    0.34   -0.23   -0.19    0.00    0.00      -3.62   -0.44   -0.37
#  16   -1.61   -2.89    0.77   -0.23   -0.29    0.00    0.00      -4.25   -0.36   -0.45
#  17   -1.39   -2.99    0.47   -0.26   -0.32    0.00    0.00      -4.48   -0.38   -0.47
#  18   -0.66   -3.47    1.10   -0.25   -0.33    0.00    0.00      -3.62   -0.36   -0.47
#  19   -0.55   -3.14    1.10   -0.30   -0.30    0.00    0.00      -3.18   -0.47   -0.47
#  20   -0.60   -2.56    0.80   -0.23   -0.23    0.00    0.00      -2.82   -0.44   -0.45
#  21   -0.42   -0.19    0.01    0.02   -0.03    0.00    0.00      -0.60    0.20   -0.26
#  22    0.53   -0.30    0.02    0.01   -0.05    0.00    0.00       0.21    0.06   -0.39
#  23    1.61   -0.58    0.10   -0.09   -0.05    0.00    0.00       0.99   -0.59   -0.34
#  24    0.64   -0.73    0.14   -0.04   -0.09    0.00    0.00      -0.08   -0.19   -0.47
#  25   -0.05   -0.42    0.03    0.00   -0.05    0.00    0.00      -0.48    0.03   -0.33
#  26   -0.07   -0.39    0.04    0.28    0.08    0.00    0.00      -0.06    1.88    0.52
#  27    0.02   -0.12    0.00   -0.10    0.00    0.00    0.00      -0.20   -1.33    0.02
#  28   -0.04   -0.10    0.00    0.29    0.02    0.00    0.00       0.17    5.53    0.34
#  29   -0.09   -0.20    0.01   -0.02   -0.03    0.00    0.00      -0.32   -0.25   -0.32
#  30    0.22   -0.19    0.01    0.21   -0.04    0.00    0.00       0.20    2.41   -0.41
#  31   -0.02   -0.15    0.01   -0.72   -0.01    0.00    0.00      -0.89  -10.59   -0.17
#  32   -0.15   -0.06    0.00    0.50   -0.01    0.00    0.00       0.28   14.45   -0.32
#  33    0.10   -0.34    0.11    2.29   -0.06    0.00    0.00       2.09   22.52   -0.56
#  34    0.04   -0.03    0.00    0.06   -0.01    0.00    0.00       0.07    2.23   -0.28
#  35   -0.14   -0.03    0.00    0.06   -0.01    0.00    0.00      -0.12    1.73   -0.18
#  36    0.18   -0.04    0.00    0.13   -0.01    0.00    0.00       0.26    3.19   -0.22
#  37   -0.06   -0.16    0.06    0.09   -0.02    0.00    0.00      -0.09    0.79   -0.20
#  38    0.43   -0.15    0.04    0.26   -0.03    0.00    0.00       0.55    2.22   -0.27
#  39   -1.76   -0.13    0.01    0.39   -0.04    0.00    0.00      -1.53    2.94   -0.28
#  40   -4.98   -0.40    0.07    0.83   -0.11    0.00    0.00      -4.59    2.16   -0.28
#  41   -5.77   -0.45    0.15    0.80   -0.12    0.00    0.00      -5.39    1.87   -0.28
#  42   -2.38   -0.30    0.04    0.47   -0.06    0.00    0.00      -2.22    1.80   -0.22
#  43    1.25   -0.03    0.00    1.17    0.13    0.00    0.00       2.52    3.86    0.43
#  44    1.57   -0.48    0.29    0.10   -0.09    0.00    0.00       1.39    0.32   -0.28
#  45    1.16   -0.36    0.11    0.04   -0.08    0.00    0.00       0.87    0.13   -0.28
#  46    2.80   -1.47    2.48    0.27   -0.15    0.00    0.00       3.93    0.51   -0.28
#  47    1.32   -0.79    0.21    0.35   -0.19    0.00    0.00       0.91    0.52   -0.28
#  48   -0.04   -1.15    1.46    0.35   -0.18    0.00    0.00       0.44    0.55   -0.28
#  49   -0.09   -0.59    0.14    0.41   -0.17    0.00    0.00      -0.29    0.69   -0.28
#  50    0.08   -0.41    0.10    0.32   -0.10    0.00    0.00      -0.02    0.88   -0.28
#  51   -0.44   -0.04    0.00    0.00   -0.01    0.00    0.00      -0.49   -0.06   -0.23
#  52   -1.62   -0.09    0.01   -0.02   -0.03    0.00    0.00      -1.75   -0.24   -0.26
#  53   -1.52   -0.12    0.01    0.32   -0.02    0.00    0.00      -1.32    3.03   -0.18
#  54   -0.94   -0.19    0.02    0.28   -0.05    0.00    0.00      -0.88    1.50   -0.28
#  55   -0.03   -0.03    0.00   -0.01   -0.01    0.00    0.00      -0.07   -0.60   -0.28
#  56    0.03   -0.03    0.00   -0.02   -0.01    0.00    0.00      -0.03   -0.49   -0.28

@<TRIPOS>MOLECULE
       AVX38708_0        76
   56    59     0     0     0



@<TRIPOS>ATOM
      1 C1         -0.2680   -24.4227    -0.7175 C.3        1          -0.0648
      2 N1          0.1669   -23.0413    -0.9632 N.4        1          -0.3791
      3 H1          0.7478   -23.0131    -1.7876 H          1           0.4148
      4 C2          0.9334   -22.5565     0.1925 C.3        1           0.0370
      5 C3          1.7783   -21.3798    -0.2229 C.ar       1          -0.0861
      6 C4          1.2748   -20.0988    -0.1266 C.ar       1          -0.0991
      7 C5          2.0491   -19.0175    -0.5075 C.ar       1          -0.0859
      8 C6          3.3324   -19.2125    -0.9873 C.ar       1          -0.1003
      9 C7          3.8478   -20.4879    -1.0882 C.ar       1          -0.0802
     10 C8          3.0738   -21.5829    -0.7006 C.ar       1          -0.1220
     11 C9          3.6218   -22.9524    -0.8007 C.2        1           0.5538
     12 O1          3.0717   -23.7774    -1.5038 O.2        1          -0.5451
     13 N2          4.7314   -23.2862    -0.1125 N.am       1          -0.7073
     14 C10         5.2746   -24.6431    -0.2116 C.3        1           0.1584
     15 C11         6.6801   -24.5833    -0.7521 C.ar       1          -0.1192
     16 C12         7.6016   -25.5478    -0.3895 C.ar       1          -0.0991
     17 C13         8.8909   -25.4928    -0.8852 C.ar       1          -0.1204
     18 C14         9.2585   -24.4737    -1.7438 C.ar       1          -0.1066
     19 C15         8.3367   -23.5098    -2.1070 C.ar       1          -0.1207
     20 C16         7.0462   -23.5670    -1.6147 C.ar       1          -0.0994
     21 C17        -1.0102   -22.1856    -1.1639 C.3        1           0.0664
     22 C18        -1.7964   -22.6830    -2.3493 C.ar       1          -0.0817
     23 C19        -1.1439   -23.0351    -3.5099 C.ar       1          -0.1582
     24 C20        -1.8588   -23.4935    -4.6052 C.ar       1          -0.0897
     25 C21        -3.2363   -23.6030    -4.5444 C.ar       1           0.0233
     26 O2         -4.1648   -24.0153    -5.4532 O.3        1          -0.3099
     27 C22        -5.4272   -23.4954    -5.0095 C.3        1           0.2033
     28 O3         -5.2395   -23.4527    -3.5871 O.3        1          -0.2691
     29 C23        -3.9117   -23.2513    -3.3776 C.ar       1           0.0959
     30 C24        -3.1898   -22.7928    -2.2692 C.ar       1          -0.1039
     31 C25        -3.8915   -22.4236    -1.0293 C.2        1           0.5195
     32 O4         -4.0846   -23.2645    -0.1620 O.co2      1          -0.6840
     33 O5         -4.2819   -21.2757    -0.8659 O.co2      1          -0.6463
     34 H2         -0.8955   -24.4532     0.1731 H          1           0.1237
     35 H3         -0.8367   -24.7825    -1.5751 H          1           0.1287
     36 H4          0.6054   -25.0576    -0.5686 H          1           0.1125
     37 H5          0.2465   -22.2501     0.9815 H          1           0.1602
     38 H6          1.5779   -23.3543     0.5617 H          1           0.1330
     39 H7          0.2739   -19.9399     0.2468 H          1           0.1426
     40 H8          1.6503   -18.0169    -0.4305 H          1           0.1402
     41 H9          3.9314   -18.3642    -1.2836 H          1           0.1399
     42 H10         4.8495   -20.6388    -1.4627 H          1           0.1345
     43 H11         5.1705   -22.6278     0.4487 H          1           0.4049
     44 H12         5.2845   -25.1036     0.7762 H          1           0.0852
     45 H13         4.6523   -25.2354    -0.8824 H          1           0.0858
     46 H14         7.3144   -26.3440     0.2813 H          1           0.1248
     47 H15         9.6111   -26.2460    -0.6014 H          1           0.1266
     48 H16        10.2660   -24.4305    -2.1305 H          1           0.1259
     49 H17         8.6240   -22.7134    -2.7776 H          1           0.1264
     50 H18         6.3250   -22.8161    -1.9014 H          1           0.1244
     51 H19        -1.6376   -22.2162    -0.2730 H          1           0.1615
     52 H20        -0.6875   -21.1607    -1.3460 H          1           0.1478
     53 H21        -0.0685   -22.9531    -3.5670 H          1           0.1200
     54 H22        -1.3375   -23.7663    -5.5108 H          1           0.1370
     55 H23        -5.6006   -22.4968    -5.4105 H          1           0.1344
     56 H24        -6.2419   -24.1689    -5.2757 H          1           0.0855
@<TRIPOS>BOND
     1    1    2 1
     2    1   34 1
     3    1   35 1
     4    1   36 1
     5    2    3 1
     6    2    4 1
     7    2   21 1
     8    4    5 1
     9    4   37 1
    10    4   38 1
    11    5   10 ar
    12    5    6 ar
    13    6    7 ar
    14    6   39 1
    15    7    8 ar
    16    7   40 1
    17    8    9 ar
    18    8   41 1
    19    9   10 ar
    20    9   42 1
    21   10   11 1
    22   11   12 2
    23   11   13 am
    24   13   14 1
    25   13   43 1
    26   14   15 1
    27   14   44 1
    28   14   45 1
    29   15   20 ar
    30   15   16 ar
    31   16   17 ar
    32   16   46 1
    33   17   18 ar
    34   17   47 1
    35   18   19 ar
    36   18   48 1
    37   19   20 ar
    38   19   49 1
    39   20   50 1
    40   21   22 1
    41   21   51 1
    42   21   52 1
    43   22   30 ar
    44   22   23 ar
    45   23   24 ar
    46   23   53 1
    47   24   25 ar
    48   24   54 1
    49   25   29 ar
    50   25   26 1
    51   26   27 1
    52   27   28 1
    53   27   55 1
    54   27   56 1
    55   28   29 1
    56   29   30 ar
    57   30   31 1
    58   31   32 1
    59   31   33 2
