AVX38782_1, 3
##########                 Name:           AVX38782_0
##########          Protonation:                   61
##########               SMILES:   C=CC[NH+](Cc1ccccc1C(=O)NCC2CCC2)Cc3ccc4c(c3C(=O)[O-])OC[C@H](O4)CCC(=O)[O-]
##########            Long Name:   ]methyl]-2-(3-oxido-3-oxo-propyl)-2,3-dihydro-1,4-benzodioxine-5-carboxylate
##########          FlexRecCode: 1
##########               Number:                  579
##########   Ligand Source File: /raid1/people/rgc/Examples/sampl4/screening/ligands/build_1//sampl4-hivint-00000
##########           GlobalRank: 58
##########                 Rank:                    1
##########               Setnum:                  191
##########             Matchnum:                 5712
##########                Cloud:                    1
##########        Electrostatic:           -17.985176
##########        Van der Waals:           -18.131666
##########  Ligand Polar Desolv:            10.051397
########## Ligand Apolar Desolv:            -2.907258
##########      Internal Energy:             0.000000
##########      Receptor Energy: 0.0
########## Receptor Desolvation:             0.000000
########## Receptor Hydrophobic:             0.000000
##########         Total Energy: -28.97
##########        Ligand Charge:            -1.000000
##########            Arbitrary:    +999.9990
##########     heavy atom count:   38
##########           pose count:    1
##########        Ligand Energy:             0.000000
# num electro vdwattr vdwrepu polsolv apolsol rdesolv rhydroe totalscore fullpol fullapo
#   1   -0.26   -0.01    0.00    0.26    0.00    0.00    0.00      -0.01   29.35   -0.41
#   2    0.13   -0.01    0.00   -0.13    0.00    0.00    0.00      -0.01  -16.32   -0.16
#   3   -0.17   -0.01    0.00    0.21    0.00    0.00    0.00       0.02   31.09   -0.43
#   4   -0.03   -0.01    0.00    0.04    0.00    0.00    0.00      -0.01    3.76   -0.24
#   5   -0.01   -0.03    0.00    0.03    0.00    0.00    0.00      -0.01    1.56   -0.18
#   6    0.02   -0.03    0.00   -0.05    0.00    0.00    0.00      -0.06   -2.05   -0.12
#   7    0.01   -0.03    0.00   -0.01    0.00    0.00    0.00      -0.03   -0.56   -0.12
#   8   -0.04   -0.07    0.00    0.41    0.01    0.00    0.00       0.31    8.74    0.27
#   9   -0.06   -0.20    0.02   -0.05   -0.02    0.00    0.00      -0.32   -0.68   -0.30
#  10    0.23   -0.56    0.26    0.38   -0.04    0.00    0.00       0.26    2.84   -0.30
#  11   -0.51   -0.53    0.17   -1.97   -0.02    0.00    0.00      -2.86  -13.15   -0.15
#  12    0.15   -0.82    0.56    3.95   -0.09    0.00    0.00       3.75   26.20   -0.59
#  13    0.61   -0.45    0.05    2.36   -0.04    0.00    0.00       2.52   14.57   -0.25
#  14    1.18   -1.05    0.69    0.10   -0.05    0.00    0.00       0.87    0.48   -0.23
#  15   -1.09   -1.28    0.92   -0.05   -0.08    0.00    0.00      -1.58   -0.16   -0.28
#  16    6.88   -0.67    0.05    0.04    0.02    0.00    0.00       6.31    0.14    0.07
#  17   -5.00   -0.01    0.00   -0.25    0.02    0.00    0.00      -5.23   -2.88    0.29
#  18   -0.79   -0.97    0.16    0.05   -0.14    0.00    0.00      -1.69    0.14   -0.37
#  19    3.70   -2.37    1.46    0.23   -0.13    0.00    0.00       2.89    0.62   -0.35
#  20    3.58   -2.61    2.12    0.28   -0.12    0.00    0.00       3.25    0.77   -0.34
#  21   -0.54   -0.61    0.06    0.02   -0.08    0.00    0.00      -1.15    0.08   -0.28
#  22    1.45   -0.81    0.04   -0.06   -0.09    0.00    0.00       0.52   -0.21   -0.31
#  23    2.42   -1.39    0.18   -0.27   -0.16    0.00    0.00       0.78   -0.66   -0.39
#  24    1.48   -2.39    0.92   -0.24   -0.21    0.00    0.00      -0.46   -0.53   -0.47
#  25    0.46   -1.78    0.34   -0.14   -0.20    0.00    0.00      -1.33   -0.33   -0.47
#  26    0.04   -1.17    0.23    0.02   -0.15    0.00    0.00      -1.03    0.06   -0.44
#  27    0.70   -0.75    0.07    0.12   -0.10    0.00    0.00       0.04    0.46   -0.40
#  28   -1.76   -0.51    0.04   -0.79   -0.11    0.00    0.00      -3.13   -4.67   -0.63
#  29    1.81   -0.65    0.11    1.37    0.04    0.00    0.00       2.69    7.19    0.22
#  30    0.25   -0.38    0.02    0.95    0.32    0.00    0.00       1.16    6.79    2.31
#  31    0.02   -0.14    0.00   -0.21   -0.04    0.00    0.00      -0.36   -2.41   -0.42
#  32   -0.33   -0.15    0.00    0.10   -0.02    0.00    0.00      -0.39    1.12   -0.24
#  33   -0.63   -0.23    0.01    0.14   -0.04    0.00    0.00      -0.75    1.06   -0.33
#  34   -0.30   -0.14    0.00    0.11   -0.03    0.00    0.00      -0.36    1.30   -0.34
#  35   -0.18   -0.08    0.00    0.11   -0.02    0.00    0.00      -0.17    2.20   -0.33
#  36    1.64   -0.96    0.27    0.05   -0.09    0.00    0.00       0.92    0.24   -0.39
#  37    0.88   -0.42    0.04    0.22   -0.07    0.00    0.00       0.66    1.55   -0.46
#  38   -0.10   -0.18    0.01    0.01   -0.02    0.00    0.00      -0.29    0.13   -0.30
#  39    0.00   -0.09    0.00    0.35    0.03    0.00    0.00       0.29    7.70    0.62
#  40    0.01    0.00    0.00   -0.01    0.00    0.00    0.00      -0.01   -2.49   -0.28
#  41    0.01    0.00    0.00   -0.01    0.00    0.00    0.00       0.00   -2.20   -0.27
#  42    0.01   -0.01    0.00   -0.01    0.00    0.00    0.00      -0.01   -1.23   -0.28
#  43    0.00   -0.02    0.00   -0.05   -0.01    0.00    0.00      -0.07   -2.20   -0.28
#  44    0.03   -0.01    0.00   -0.02    0.00    0.00    0.00       0.00   -1.82   -0.28
#  45    0.03    0.00    0.00   -0.01    0.00    0.00    0.00       0.01   -1.47   -0.28
#  46    0.07   -0.01    0.00   -0.04    0.00    0.00    0.00       0.01   -3.03   -0.28
#  47   -2.68   -0.76    0.57    0.43   -0.11    0.00    0.00      -2.56    1.09   -0.27
#  48   -2.19   -0.61    0.90   -0.18   -0.04    0.00    0.00      -2.12   -0.65   -0.15
#  49   -3.31   -0.36    0.10    0.24   -0.05    0.00    0.00      -3.38    0.93   -0.20
#  50   -4.36   -0.43    0.10    0.82   -0.11    0.00    0.00      -3.99    2.18   -0.28
#  51   -1.52   -0.54    0.26   -0.16   -0.06    0.00    0.00      -2.02   -0.56   -0.22
#  52   -2.50   -0.62    0.58   -0.04   -0.09    0.00    0.00      -2.68   -0.13   -0.27
#  53   -1.83   -0.36    0.13   -0.14   -0.08    0.00    0.00      -2.28   -0.50   -0.28
#  54   -3.21   -0.13    0.01    0.00   -0.02    0.00    0.00      -3.35    0.02   -0.14
#  55   -4.15   -0.45    0.27    0.63   -0.08    0.00    0.00      -3.78    2.24   -0.27
#  56   -4.62   -0.30    0.03    0.74   -0.08    0.00    0.00      -4.24    2.46   -0.28
#  57   -2.56   -1.00    1.20    0.67   -0.12    0.00    0.00      -1.81    1.52   -0.28
#  58    0.09   -0.50    0.16    0.24   -0.09    0.00    0.00      -0.10    0.72   -0.28
#  59    0.86   -0.23    0.04    0.00   -0.04    0.00    0.00       0.63   -0.01   -0.22
#  60    0.74   -0.01    0.00   -0.26    0.05    0.00    0.00       0.52   -2.27    0.43
#  61   -0.06   -0.03    0.00    0.01   -0.01    0.00    0.00      -0.09    0.20   -0.28
#  62   -0.04   -0.04    0.00   -0.01   -0.01    0.00    0.00      -0.11   -0.37   -0.27
#  63    0.31   -0.08    0.01   -0.08   -0.02    0.00    0.00       0.14   -1.08   -0.28
#  64    0.33   -0.07    0.00   -0.03   -0.02    0.00    0.00       0.21   -0.58   -0.27
#  65    0.54   -0.12    0.02   -0.08   -0.03    0.00    0.00       0.32   -0.69   -0.28
#  66    0.10   -0.05    0.00   -0.03   -0.01    0.00    0.00       0.01   -0.59   -0.28
#  67    0.12   -0.04    0.00   -0.03   -0.01    0.00    0.00       0.04   -0.89   -0.28
#  68    0.08   -0.02    0.00   -0.02   -0.01    0.00    0.00       0.03   -0.94   -0.28
#  69    0.09   -0.02    0.00   -0.02   -0.01    0.00    0.00       0.04   -0.66   -0.28
#  70   -3.20   -0.56    0.73    0.00   -0.07    0.00    0.00      -3.11    0.01   -0.28
#  71   -0.95   -0.09    0.01   -0.17   -0.03    0.00    0.00      -1.23   -1.81   -0.28

@<TRIPOS>MOLECULE
       AVX38782_0        61
   71    74     0     0     0



@<TRIPOS>ATOM
      1 O1         -7.2787   -25.4750     0.2712 O.co2      1          -0.6990
      2 C1         -7.7276   -24.4718    -0.2565 C.2        1           0.4902
      3 O2         -8.7180   -24.5461    -0.9637 O.co2      1          -0.7072
      4 C2         -7.0620   -23.1389    -0.0298 C.3        1          -0.1782
      5 C3         -5.9928   -22.9139    -1.1007 C.3        1          -0.0837
      6 C4         -4.9463   -24.0271    -1.0185 C.3        1           0.0537
      7 C5         -4.2503   -23.9874     0.3470 C.3        1           0.0181
      8 O3         -3.6690   -22.6878     0.4936 O.3        1          -0.2608
      9 C6         -2.9438   -22.2222    -0.5551 C.ar       1           0.0921
     10 C7         -2.0487   -21.1596    -0.3643 C.ar       1          -0.0917
     11 C8         -1.8943   -20.5523     0.9674 C.2        1           0.5284
     12 O4         -2.6016   -19.6096     1.2955 O.co2      1          -0.6374
     13 O5         -1.0587   -20.9903     1.7462 O.co2      1          -0.7102
     14 C9         -1.3029   -20.6804    -1.4470 C.ar       1          -0.1133
     15 C10        -0.3381   -19.5394    -1.2518 C.3        1           0.0606
     16 N1          0.9835   -20.0717    -0.8936 N.4        1          -0.3535
     17 H1          0.8728   -20.8463    -0.2567 H          1           0.4372
     18 C11         1.7776   -19.0172    -0.2488 C.3        1           0.0284
     19 C12         1.3652   -18.8897     1.1950 C.2        1          -0.1681
     20 C13         0.8882   -17.7545     1.6422 C.2        1          -0.1477
     21 C14         1.6721   -20.5302    -2.1074 C.3        1           0.0231
     22 C15         3.0279   -21.0761    -1.7399 C.ar       1          -0.0838
     23 C16         4.1244   -20.2393    -1.7064 C.ar       1          -0.1054
     24 C17         5.3696   -20.7389    -1.3691 C.ar       1          -0.0946
     25 C18         5.5243   -22.0796    -1.0635 C.ar       1          -0.1039
     26 C19         4.4362   -22.9269    -1.0928 C.ar       1          -0.0833
     27 C20         3.1760   -22.4282    -1.4271 C.ar       1          -0.1083
     28 C21         2.0043   -23.3294    -1.4550 C.2        1           0.5382
     29 O6          1.7111   -23.9135    -2.4798 O.2        1          -0.5117
     30 N2          1.2612   -23.5032    -0.3441 N.am       1          -0.7100
     31 C22         0.1003   -24.3962    -0.3716 C.3        1           0.1270
     32 C23         0.2953   -25.5179     0.6504 C.3        1          -0.1244
     33 C24         1.1604   -26.6792     0.1330 C.3        1          -0.1366
     34 C25         0.1810   -27.6242     0.8490 C.3        1          -0.1432
     35 C26        -0.8740   -26.5152     0.7010 C.3        1          -0.1290
     36 C27        -1.4510   -21.2526    -2.6909 C.ar       1          -0.1141
     37 C28        -2.3352   -22.3023    -2.8784 C.ar       1          -0.1215
     38 C29        -3.0802   -22.7897    -1.8168 C.ar       1           0.0628
     39 O7         -3.9418   -23.8243    -2.0175 O.3        1          -0.2991
     40 H2         -7.8075   -22.3458    -0.0885 H          1           0.0538
     41 H3         -6.5968   -23.1280     0.9560 H          1           0.0630
     42 H4         -6.4580   -22.9249    -2.0865 H          1           0.0736
     43 H5         -5.5114   -21.9499    -0.9369 H          1           0.0845
     44 H6         -5.4241   -24.9956    -1.1654 H          1           0.0760
     45 H7         -4.9792   -24.1584     1.1393 H          1           0.0732
     46 H8         -3.4708   -24.7483     0.3875 H          1           0.1195
     47 H9         -0.2608   -18.9668    -2.1760 H          1           0.1023
     48 H10        -0.6980   -18.8920    -0.4523 H          1           0.1586
     49 H11         2.8355   -19.2744    -0.3032 H          1           0.1118
     50 H12         1.6073   -18.0700    -0.7604 H          1           0.1197
     51 H13         1.4629   -19.7341     1.8612 H          1           0.1406
     52 H14         0.7904   -16.9100     0.9760 H          1           0.0938
     53 H15         0.5926   -17.6631     2.6768 H          1           0.1120
     54 H16         1.0829   -21.3125    -2.5859 H          1           0.1636
     55 H17         1.7918   -19.6933    -2.7954 H          1           0.1182
     56 H18         4.0103   -19.1920    -1.9443 H          1           0.1372
     57 H19         6.2247   -20.0797    -1.3447 H          1           0.1357
     58 H20         6.4993   -22.4635    -0.8018 H          1           0.1362
     59 H21         4.5584   -23.9730    -0.8540 H          1           0.1335
     60 H22         1.4951   -23.0369     0.4737 H          1           0.3971
     61 H23        -0.7985   -23.8314    -0.1243 H          1           0.0835
     62 H24        -0.0036   -24.8263    -1.3678 H          1           0.0726
     63 H25         0.5976   -25.1495     1.6306 H          1           0.0932
     64 H26         1.1508   -26.7811    -0.9522 H          1           0.0838
     65 H27         2.1668   -26.6943     0.5516 H          1           0.0639
     66 H28        -0.0501   -28.5254     0.2813 H          1           0.0717
     67 H29         0.4532   -27.8327     1.8836 H          1           0.0786
     68 H30        -1.5102   -26.3981     1.5783 H          1           0.0717
     69 H31        -1.4400   -26.5723    -0.2288 H          1           0.0878
     70 H32        -0.8747   -20.8804    -3.5250 H          1           0.1202
     71 H33        -2.4442   -22.7437    -3.8580 H          1           0.1289
@<TRIPOS>BOND
     1    1    2 1
     2    2    3 2
     3    2    4 1
     4    4    5 1
     5    4   40 1
     6    4   41 1
     7    5    6 1
     8    5   42 1
     9    5   43 1
    10    6   39 1
    11    6    7 1
    12    6   44 1
    13    7    8 1
    14    7   45 1
    15    7   46 1
    16    8    9 1
    17    9   38 ar
    18    9   10 ar
    19   10   11 1
    20   10   14 ar
    21   11   12 1
    22   11   13 2
    23   14   15 1
    24   14   36 ar
    25   15   16 1
    26   15   47 1
    27   15   48 1
    28   16   17 1
    29   16   18 1
    30   16   21 1
    31   18   19 1
    32   18   49 1
    33   18   50 1
    34   19   20 2
    35   19   51 1
    36   20   52 1
    37   20   53 1
    38   21   22 1
    39   21   54 1
    40   21   55 1
    41   22   27 ar
    42   22   23 ar
    43   23   24 ar
    44   23   56 1
    45   24   25 ar
    46   24   57 1
    47   25   26 ar
    48   25   58 1
    49   26   27 ar
    50   26   59 1
    51   27   28 1
    52   28   29 2
    53   28   30 am
    54   30   31 1
    55   30   60 1
    56   31   32 1
    57   31   61 1
    58   31   62 1
    59   32   35 1
    60   32   33 1
    61   32   63 1
    62   33   34 1
    63   33   64 1
    64   33   65 1
    65   34   35 1
    66   34   66 1
    67   34   67 1
    68   35   68 1
    69   35   69 1
    70   36   37 ar
    71   36   70 1
    72   37   38 ar
    73   37   71 1
    74   38   39 1
