AVX38747_0, 3
##########                 Name:           AVX38747_0
##########          Protonation:                  100
##########               SMILES:   [C@@H]([C@@H]2Cc3ccc4c(c3C(=O)[O-])OC[C@@H](O4)CCC(=O)[O-])NC(=O)CCCCC[NH3+]
##########            Long Name:   ]methyl]-2-(3-oxido-3-oxo-propyl)-2,3-dihydro-1,4-benzodioxine-5-carboxylate
##########          FlexRecCode: 1
##########               Number:                  319
##########   Ligand Source File: /raid1/people/rgc/Examples/sampl4/screening/ligands/build_1//sampl4-hivint-00000
##########           GlobalRank: 130
##########                 Rank:                    1
##########               Setnum:                   12
##########             Matchnum:                13695
##########                Cloud:                    1
##########        Electrostatic:            -7.753544
##########        Van der Waals:           -19.201981
##########  Ligand Polar Desolv:            12.704087
########## Ligand Apolar Desolv:            -3.372674
##########      Internal Energy:             0.000000
##########      Receptor Energy: 0.0
########## Receptor Desolvation:             0.000000
########## Receptor Hydrophobic:             0.000000
##########         Total Energy: -17.62
##########        Ligand Charge:            -1.000000
##########            Arbitrary:    +999.9990
##########     heavy atom count:   37
##########           pose count:    1
##########        Ligand Energy:             0.000000
# num electro vdwattr vdwrepu polsolv apolsol rdesolv rhydroe totalscore fullpol fullapo
#   1   -0.59   -0.14    0.00   -1.17    0.06    0.00    0.00      -1.84  -16.52    0.86
#   2    0.39    0.00    0.00    0.39    0.02    0.00    0.00       0.80   12.01    0.58
#   3    0.43    0.00    0.00    0.80    0.04    0.00    0.00       1.26   12.82    0.58
#   4    0.49    0.00    0.00    0.40    0.02    0.00    0.00       0.90   13.80    0.59
#   5   -0.01   -0.06    0.00    0.03   -0.02    0.00    0.00      -0.06    0.63   -0.49
#   6   -0.03   -0.08    0.00   -0.12   -0.01    0.00    0.00      -0.24   -2.28   -0.24
#   7    0.26   -0.10    0.00   -0.06   -0.01    0.00    0.00       0.09   -1.03   -0.22
#   8    0.61   -0.20    0.01   -0.02   -0.02    0.00    0.00       0.39   -0.13   -0.19
#   9    1.89   -0.43    0.06   -0.01   -0.05    0.00    0.00       1.46   -0.04   -0.25
#  10   -7.16   -0.57    0.05   -0.73   -0.10    0.00    0.00      -8.51   -3.91   -0.54
#  11    5.87   -0.51    0.03    1.68    0.07    0.00    0.00       7.15    8.78    0.37
#  12   10.44   -0.54    0.02    1.42    0.23    0.00    0.00      11.57    6.65    1.10
#  13   -1.49   -0.56    0.08   -0.72   -0.07    0.00    0.00      -2.76   -2.76   -0.28
#  14    1.29   -0.72    0.08    0.29   -0.09    0.00    0.00       0.85    0.84   -0.27
#  15    0.61   -1.56    0.37    0.50   -0.17    0.00    0.00      -0.25    1.26   -0.43
#  16    0.60   -2.44    0.67    0.41   -0.23    0.00    0.00      -0.99    0.82   -0.47
#  17   -0.39   -3.09    1.67    0.40   -0.24    0.00    0.00      -1.66    0.77   -0.47
#  18   -1.23   -2.01    0.31    0.77   -0.24    0.00    0.00      -2.39    1.50   -0.47
#  19   -0.90   -1.77    0.55    1.06   -0.19    0.00    0.00      -1.25    2.54   -0.45
#  20   -0.13   -1.50    0.69    0.72   -0.13    0.00    0.00      -0.35    2.14   -0.39
#  21    0.04   -0.54    0.11    0.14   -0.03    0.00    0.00      -0.28    0.64   -0.15
#  22   -0.05   -0.48    0.08    0.19   -0.04    0.00    0.00      -0.30    0.84   -0.16
#  23   -0.49   -1.28    0.68    0.20   -0.09    0.00    0.00      -0.99    0.71   -0.33
#  24   -1.81   -2.32    1.40    0.50   -0.16    0.00    0.00      -2.38    1.25   -0.39
#  25   -1.97   -3.21    1.30    0.54   -0.21    0.00    0.00      -3.55    1.16   -0.46
#  26    0.39   -2.86    1.83    0.05   -0.12    0.00    0.00      -0.71    0.12   -0.30
#  27   -3.05   -5.75   11.31    3.04    0.26    0.00    0.00       5.81    7.40    0.62
#  28    0.14   -1.17    0.49   -0.58   -0.04    0.00    0.00      -1.16   -1.93   -0.12
#  29   -0.21   -0.70    0.11    0.36   -0.05    0.00    0.00      -0.48    1.45   -0.18
#  30   -0.24   -0.25    0.01    0.50   -0.03    0.00    0.00      -0.01    3.66   -0.25
#  31    0.61   -0.17    0.00   -0.86   -0.01    0.00    0.00      -0.43  -15.84   -0.16
#  32   -0.80   -0.10    0.00    1.19   -0.02    0.00    0.00       0.28   28.78   -0.41
#  33   -0.83   -0.13    0.00    1.61   -0.02    0.00    0.00       0.62   29.52   -0.43
#  34    0.04   -0.63    0.16   -0.08   -0.03    0.00    0.00      -0.54   -0.36   -0.12
#  35   -1.05   -0.47    0.04    2.11    0.05    0.00    0.00       0.68   11.05    0.27
#  36    0.82   -1.07    0.23   -0.24   -0.08    0.00    0.00      -0.35   -0.88   -0.30
#  37   -1.14   -0.76    0.14    1.55   -0.09    0.00    0.00      -0.30    7.21   -0.41
#  38    1.83   -0.31    0.01   -2.30   -0.02    0.00    0.00      -0.78  -19.24   -0.16
#  39   -1.14   -0.21    0.01    2.51   -0.03    0.00    0.00       1.14   26.80   -0.29
#  40   -2.05   -0.24    0.00    3.90   -0.07    0.00    0.00       1.55   34.07   -0.59
#  41    0.10   -0.02    0.00    0.07   -0.01    0.00    0.00       0.14    3.53   -0.28
#  42    0.09   -0.01    0.00    0.05    0.00    0.00    0.00       0.12    2.74   -0.28
#  43    0.05   -0.04    0.00    0.04   -0.01    0.00    0.00       0.03    0.75   -0.28
#  44    0.04   -0.01    0.00    0.02    0.00    0.00    0.00       0.04    1.34   -0.28
#  45   -0.10   -0.02    0.00    0.03   -0.01    0.00    0.00      -0.11    1.12   -0.28
#  46   -0.18   -0.03    0.00    0.02   -0.01    0.00    0.00      -0.20    0.68   -0.28
#  47   -0.52   -0.07    0.00    0.00   -0.02    0.00    0.00      -0.60    0.01   -0.28
#  48   -0.19   -0.05    0.00    0.00   -0.02    0.00    0.00      -0.25    0.00   -0.28
#  49   -1.82   -0.32    0.14    0.11   -0.07    0.00    0.00      -1.96    0.46   -0.28
#  50   -0.94   -0.10    0.01    0.02   -0.03    0.00    0.00      -1.04    0.20   -0.25
#  51   -6.92   -0.01    0.00   -0.23    0.04    0.00    0.00      -7.12   -2.69    0.44
#  52   -0.95   -0.29    0.13   -0.13   -0.06    0.00    0.00      -1.29   -0.60   -0.26
#  53   -1.68   -0.39    0.21   -0.29   -0.08    0.00    0.00      -2.23   -0.98   -0.28
#  54   -1.41   -0.18    0.01   -0.19   -0.04    0.00    0.00      -1.81   -1.20   -0.28
#  55   -1.30   -0.57    0.15   -0.48   -0.13    0.00    0.00      -2.34   -1.01   -0.28
#  56    0.35   -1.11    1.64   -0.40   -0.12    0.00    0.00       0.37   -0.92   -0.28
#  57    1.59   -0.38    0.03   -0.67   -0.12    0.00    0.00       0.45   -1.57   -0.28
#  58    2.05   -0.37    0.10   -0.44   -0.08    0.00    0.00       1.27   -1.51   -0.27
#  59    0.24   -0.18    0.06    0.06   -0.03    0.00    0.00       0.15    0.44   -0.22
#  60   -0.32   -0.20    0.04   -0.19   -0.04    0.00    0.00      -0.71   -0.95   -0.20
#  61   -0.03   -0.09    0.01   -0.17   -0.02    0.00    0.00      -0.30   -2.06   -0.20
#  62    1.02   -0.61    0.50   -0.80   -0.06    0.00    0.00       0.04   -2.25   -0.18
#  63    1.96   -1.34    1.39   -1.53   -0.16    0.00    0.00       0.33   -2.72   -0.28
#  64    0.17   -0.34    0.13   -0.51   -0.07    0.00    0.00      -0.61   -2.13   -0.28
#  65    0.18   -0.49    0.22   -0.39   -0.08    0.00    0.00      -0.57   -1.36   -0.28
#  66    0.20   -0.17    0.02   -0.34   -0.04    0.00    0.00      -0.33   -2.25   -0.28
#  67    0.08   -0.07    0.00   -0.15   -0.02    0.00    0.00      -0.15   -2.47   -0.28
#  68    0.08   -0.06    0.00   -0.13   -0.01    0.00    0.00      -0.13   -2.44   -0.27
#  69    0.30   -0.48    0.46   -0.89   -0.07    0.00    0.00      -0.67   -3.62   -0.28
#  70    0.11   -0.07    0.00   -0.13   -0.02    0.00    0.00      -0.10   -1.76   -0.28

@<TRIPOS>MOLECULE
       AVX38747_0       100
   70    73     0     0     0



@<TRIPOS>ATOM
      1 N1         -1.4387   -26.5009    -0.7623 N.4        1          -0.6385
      2 H1         -0.7109   -25.8042    -0.7086 H          1           0.4372
      3 H2         -1.4530   -26.9017    -1.6881 H          1           0.4337
      4 H3         -1.2606   -27.2266    -0.0844 H          1           0.4354
      5 C1         -2.7374   -25.8750    -0.4798 C.3        1          -0.0096
      6 C2         -3.0077   -24.7745    -1.5078 C.3        1          -0.1536
      7 C3         -1.9039   -23.7181    -1.4262 C.3        1          -0.1184
      8 C4         -2.1743   -22.6176    -2.4543 C.3        1          -0.1049
      9 C5         -1.0705   -21.5613    -2.3727 C.3        1          -0.1451
     10 C6          0.2617   -22.2034    -2.6626 C.2        1           0.5118
     11 O1          0.3247   -23.1613    -3.4036 O.2        1          -0.5424
     12 N2          1.3831   -21.7131    -2.0982 N.am       1          -0.7071
     13 C7          2.6781   -22.3373    -2.3799 C.3        1           0.1468
     14 C8          3.8244   -21.3355    -2.2042 C.3        1          -0.0865
     15 C9          5.0045   -22.1753    -1.7833 C.ar       1          -0.1065
     16 C10         6.3655   -21.9297    -1.8465 C.ar       1          -0.1148
     17 C11         7.2627   -22.8744    -1.3874 C.ar       1          -0.1308
     18 C12         6.8011   -24.0680    -0.8642 C.ar       1          -0.1249
     19 C13         5.4434   -24.3143    -0.8012 C.ar       1          -0.0893
     20 C14         4.5432   -23.3681    -1.2605 C.ar       1          -0.0643
     21 C15         3.0357   -23.3750    -1.3104 C.3        1          -0.0387
     22 C16         2.4555   -22.9658     0.0448 C.3        1          -0.0530
     23 C17         2.8680   -23.9685     1.0914 C.ar       1          -0.0517
     24 C18         4.0340   -23.7841     1.8005 C.ar       1          -0.1387
     25 C19         4.4208   -24.7016     2.7637 C.ar       1          -0.1223
     26 C20         3.6391   -25.8152     3.0250 C.ar       1           0.0296
     27 O2          4.0357   -26.7091     3.9719 O.3        1          -0.3054
     28 C21         3.0354   -27.6031     4.4706 C.3        1           0.0511
     29 C22         2.0508   -26.8384     5.3575 C.3        1          -0.0819
     30 C23         1.3115   -27.8231     6.2657 C.3        1          -0.1779
     31 C24         0.5583   -28.8176     5.4205 C.2        1           0.4911
     32 O3         -0.2994   -28.4322     4.6443 O.co2      1          -0.6986
     33 O4          0.8063   -30.0078     5.5129 O.co2      1          -0.7121
     34 C25         2.2988   -28.1891     3.2601 C.3        1           0.0194
     35 O5          1.6810   -27.1001     2.5670 O.3        1          -0.2603
     36 C26         2.4580   -26.0150     2.3195 C.ar       1           0.0868
     37 C27         2.0636   -25.0844     1.3474 C.ar       1          -0.1354
     38 C28         0.8131   -25.2831     0.5971 C.2        1           0.5238
     39 O6         -0.2352   -24.8159     1.0206 O.co2      1          -0.6834
     40 O7          0.8221   -25.9154    -0.4502 O.co2      1          -0.6638
     41 H4         -3.5237   -26.6276    -0.5379 H          1           0.1315
     42 H5         -2.7222   -25.4421     0.5204 H          1           0.1345
     43 H6         -3.0231   -25.2075    -2.5080 H          1           0.0917
     44 H7         -3.9714   -24.3101    -1.2981 H          1           0.0871
     45 H8         -1.8887   -23.2852    -0.4260 H          1           0.0721
     46 H9         -0.9404   -24.1826    -1.6359 H          1           0.0768
     47 H10        -2.1895   -23.0507    -3.4544 H          1           0.0784
     48 H11        -3.1378   -22.1534    -2.2445 H          1           0.0718
     49 H12        -1.2631   -20.7773    -3.1051 H          1           0.0899
     50 H13        -1.0553   -21.1283    -1.3724 H          1           0.0956
     51 H14         1.3327   -20.9467    -1.5055 H          1           0.4001
     52 H15         2.6904   -22.7793    -3.3762 H          1           0.1027
     53 H16         4.0349   -20.8299    -3.1467 H          1           0.0856
     54 H17         3.5790   -20.6095    -1.4291 H          1           0.0707
     55 H18         6.7264   -20.9975    -2.2552 H          1           0.1105
     56 H19         8.3240   -22.6805    -1.4369 H          1           0.1153
     57 H20         7.5016   -24.8072    -0.5047 H          1           0.1185
     58 H21         5.0833   -25.2470    -0.3928 H          1           0.1307
     59 H22         2.6697   -24.3601    -1.5995 H          1           0.1172
     60 H23         2.8313   -21.9797     0.3182 H          1           0.1181
     61 H24         1.3677   -22.9349    -0.0200 H          1           0.0379
     62 H25         4.6507   -22.9194     1.6044 H          1           0.1086
     63 H26         5.3374   -24.5481     3.3138 H          1           0.1158
     64 H27         3.5056   -28.4024     5.0434 H          1           0.0754
     65 H28         2.5956   -26.1190     5.9688 H          1           0.0712
     66 H29         1.3311   -26.3115     4.7309 H          1           0.0829
     67 H30         2.0313   -28.3501     6.8922 H          1           0.0552
     68 H31         0.6103   -27.2781     6.8976 H          1           0.0615
     69 H32         3.0083   -28.6917     2.6027 H          1           0.1162
     70 H33         1.5379   -28.8940     3.5954 H          1           0.0695
@<TRIPOS>BOND
     1    1    2 1
     2    1    3 1
     3    1    4 1
     4    1    5 1
     5    5    6 1
     6    5   41 1
     7    5   42 1
     8    6    7 1
     9    6   43 1
    10    6   44 1
    11    7    8 1
    12    7   45 1
    13    7   46 1
    14    8    9 1
    15    8   47 1
    16    8   48 1
    17    9   10 1
    18    9   49 1
    19    9   50 1
    20   10   11 2
    21   10   12 am
    22   12   13 1
    23   12   51 1
    24   13   21 1
    25   13   14 1
    26   13   52 1
    27   14   15 1
    28   14   53 1
    29   14   54 1
    30   15   20 ar
    31   15   16 ar
    32   16   17 ar
    33   16   55 1
    34   17   18 ar
    35   17   56 1
    36   18   19 ar
    37   18   57 1
    38   19   20 ar
    39   19   58 1
    40   20   21 1
    41   21   22 1
    42   21   59 1
    43   22   23 1
    44   22   60 1
    45   22   61 1
    46   23   37 ar
    47   23   24 ar
    48   24   25 ar
    49   24   62 1
    50   25   26 ar
    51   25   63 1
    52   26   36 ar
    53   26   27 1
    54   27   28 1
    55   28   29 1
    56   28   34 1
    57   28   64 1
    58   29   30 1
    59   29   65 1
    60   29   66 1
    61   30   31 1
    62   30   67 1
    63   30   68 1
    64   31   32 1
    65   31   33 2
    66   34   35 1
    67   34   69 1
    68   34   70 1
    69   35   36 1
    70   36   37 ar
    71   37   38 1
    72   38   39 1
    73   38   40 2
