AVX38749_0, 3
##########                 Name:           AVX38749_0
##########          Protonation:                  100
##########               SMILES:   c1)C[C@H]([C@@H]2Cc3ccc4c(c3C(=O)[O-])OC[C@H](O4)CCC(=O)[O-])NC(=O)CCC[NH3+]
##########            Long Name:   ]methyl]-2-(3-oxido-3-oxo-propyl)-2,3-dihydro-1,4-benzodioxine-5-carboxylate
##########          FlexRecCode: 1
##########               Number:                  529
##########   Ligand Source File: /raid1/people/rgc/Examples/sampl4/screening/ligands/build_1//sampl4-hivint-00000
##########           GlobalRank: 86
##########                 Rank:                    1
##########               Setnum:                   23
##########             Matchnum:                 3923
##########                Cloud:                    1
##########        Electrostatic:           -25.347731
##########        Van der Waals:           -14.307153
##########  Ligand Polar Desolv:            14.570333
########## Ligand Apolar Desolv:            -1.251605
##########      Internal Energy:             0.000000
##########      Receptor Energy: 0.0
########## Receptor Desolvation:             0.000000
########## Receptor Hydrophobic:             0.000000
##########         Total Energy: -26.34
##########        Ligand Charge:            -1.000000
##########            Arbitrary:    +999.9990
##########     heavy atom count:   35
##########           pose count:    1
##########        Ligand Energy:             0.000000
# num electro vdwattr vdwrepu polsolv apolsol rdesolv rhydroe totalscore fullpol fullapo
#   1    5.99   -0.63    0.09   -3.02    0.19    0.00    0.00       2.62  -13.42    0.86
#   2   -5.02   -0.01    0.00    0.61    0.04    0.00    0.00      -4.38    9.84    0.58
#   3   -1.38   -0.01    0.00    1.48    0.08    0.00    0.00       0.17   11.37    0.60
#   4   -2.95   -0.01    0.00    2.04    0.11    0.00    0.00      -0.81   11.25    0.58
#   5    0.26   -0.77    0.10    0.12   -0.16    0.00    0.00      -0.45    0.36   -0.49
#   6    4.26   -0.97    0.15   -0.42   -0.08    0.00    0.00       2.94   -1.10   -0.20
#   7    4.88   -1.32    0.72   -0.07   -0.09    0.00    0.00       4.13   -0.19   -0.24
#   8  -10.36   -0.84    0.05   -0.81   -0.19    0.00    0.00     -12.14   -2.80   -0.66
#   9    6.68   -0.62    0.03    1.18    0.10    0.00    0.00       7.37    4.36    0.37
#  10   13.46   -0.95    0.13    2.01    0.55    0.00    0.00      15.19    7.11    1.96
#  11   -1.36   -0.46    0.04   -0.49   -0.05    0.00    0.00      -2.32   -2.12   -0.23
#  12    0.76   -0.65    0.06    0.20   -0.09    0.00    0.00       0.28    0.59   -0.27
#  13    0.84   -0.71    0.09    0.29   -0.10    0.00    0.00       0.41    1.29   -0.43
#  14    0.55   -0.84    0.14    0.22   -0.11    0.00    0.00      -0.05    0.91   -0.47
#  15    0.18   -0.46    0.04    0.16   -0.07    0.00    0.00      -0.15    1.01   -0.47
#  16    0.14   -0.23    0.01    0.18   -0.05    0.00    0.00       0.04    1.80   -0.47
#  17    0.22   -0.20    0.00    0.24   -0.04    0.00    0.00       0.23    2.80   -0.45
#  18    0.33   -0.33    0.01    0.29   -0.05    0.00    0.00       0.24    2.23   -0.39
#  19    0.17   -0.21    0.00    0.05   -0.02    0.00    0.00      -0.01    0.37   -0.13
#  20   -0.01   -0.24    0.01    0.17   -0.02    0.00    0.00      -0.10    1.19   -0.17
#  21   -0.06   -0.20    0.00    0.03   -0.02    0.00    0.00      -0.25    0.38   -0.31
#  22   -0.12   -0.16    0.00    0.09   -0.03    0.00    0.00      -0.21    1.38   -0.45
#  23   -0.11   -0.09    0.00    0.03   -0.02    0.00    0.00      -0.19    0.68   -0.46
#  24    0.02   -0.10    0.00   -0.02   -0.01    0.00    0.00      -0.10   -0.48   -0.30
#  25   -0.29   -0.06    0.00    0.15    0.02    0.00    0.00      -0.17    5.29    0.62
#  26    0.06   -0.10    0.00   -0.10   -0.01    0.00    0.00      -0.15   -1.62   -0.12
#  27   -0.09   -0.17    0.01    0.12   -0.02    0.00    0.00      -0.14    1.34   -0.18
#  28   -0.11   -0.04    0.00    0.06   -0.01    0.00    0.00      -0.10    2.37   -0.24
#  29    0.28   -0.04    0.00   -0.17    0.00    0.00    0.00       0.07  -13.28   -0.16
#  30   -0.34   -0.03    0.00    0.33   -0.01    0.00    0.00      -0.04   27.08   -0.41
#  31   -0.40   -0.01    0.00    0.24    0.00    0.00    0.00      -0.18   25.81   -0.43
#  32    0.02   -0.28    0.03   -0.01   -0.01    0.00    0.00      -0.25   -0.10   -0.12
#  33   -0.50   -0.53    0.08    1.35    0.04    0.00    0.00       0.44    8.74    0.27
#  34    0.16   -0.24    0.01   -0.11   -0.03    0.00    0.00      -0.20   -1.20   -0.30
#  35   -0.39   -0.26    0.01    0.54   -0.04    0.00    0.00      -0.14    5.39   -0.41
#  36    3.13   -0.54    0.06   -2.97   -0.03    0.00    0.00      -0.35  -17.07   -0.16
#  37   -7.00   -0.71    0.08    6.08   -0.07    0.00    0.00      -1.62   25.17   -0.29
#  38   -3.30   -0.83    0.30    5.72   -0.11    0.00    0.00       1.77   30.03   -0.59
#  39   -2.73   -0.18    0.01    0.29   -0.05    0.00    0.00      -2.67    1.51   -0.28
#  40   -3.03   -0.55    0.31    0.84   -0.08    0.00    0.00      -2.51    2.91   -0.28
#  41   -3.92   -0.41    0.08    0.39   -0.11    0.00    0.00      -3.96    1.04   -0.28
#  42   -2.78   -0.32    0.07    0.11   -0.07    0.00    0.00      -2.98    0.46   -0.28
#  43   -4.05   -0.86    1.88   -0.01   -0.09    0.00    0.00      -3.13   -0.04   -0.28
#  44   -4.11   -0.67    0.47    0.19   -0.10    0.00    0.00      -4.20    0.54   -0.28
#  45  -11.30   -0.03    0.00   -1.05    0.13    0.00    0.00     -12.25   -4.61    0.57
#  46   -0.52   -0.26    0.13   -0.20   -0.05    0.00    0.00      -0.89   -1.09   -0.25
#  47   -1.08   -0.33    0.08   -0.26   -0.09    0.00    0.00      -1.68   -0.85   -0.28
#  48   -0.26   -0.23    0.02   -0.23   -0.08    0.00    0.00      -0.77   -0.84   -0.28
#  49   -0.43   -0.22    0.03   -0.23   -0.07    0.00    0.00      -0.91   -0.97   -0.28
#  50    0.01   -0.07    0.00   -0.07   -0.02    0.00    0.00      -0.15   -1.05   -0.28
#  51    0.03   -0.02    0.00   -0.04   -0.01    0.00    0.00      -0.03   -1.71   -0.28
#  52   -0.15   -0.02    0.00   -0.04   -0.01    0.00    0.00      -0.21   -1.53   -0.27
#  53   -0.55   -0.04    0.00   -0.02   -0.01    0.00    0.00      -0.62   -0.51   -0.22
#  54    0.06   -0.10    0.00   -0.08   -0.02    0.00    0.00      -0.14   -0.80   -0.20
#  55    0.10   -0.11    0.01   -0.18   -0.03    0.00    0.00      -0.20   -1.60   -0.27
#  56    0.10   -0.05    0.00   -0.10   -0.01    0.00    0.00      -0.06   -2.09   -0.28
#  57    0.09   -0.01    0.00   -0.03    0.00    0.00    0.00       0.04   -1.99   -0.28
#  58    0.06   -0.02    0.00   -0.03    0.00    0.00    0.00       0.02   -1.95   -0.28
#  59    0.09   -0.11    0.02   -0.14   -0.02    0.00    0.00      -0.17   -1.70   -0.28
#  60    0.09   -0.06    0.01   -0.03   -0.02    0.00    0.00      -0.02   -0.52   -0.28
#  61    0.03   -0.01    0.00   -0.02    0.00    0.00    0.00       0.00   -1.87   -0.27
#  62    0.03   -0.01    0.00   -0.02    0.00    0.00    0.00       0.00   -2.33   -0.28
#  63    0.12   -0.20    0.06   -0.14   -0.04    0.00    0.00      -0.19   -1.07   -0.28
#  64    0.16   -0.04    0.00   -0.10   -0.01    0.00    0.00       0.01   -2.81   -0.28

@<TRIPOS>MOLECULE
       AVX38749_0       100
   64    67     0     0     0



@<TRIPOS>ATOM
      1 N1          1.7212   -21.2023    -0.0736 N.4        1          -0.6357
      2 H1          1.3731   -21.5071    -0.9701 H          1           0.4381
      3 H2          1.1162   -21.5463     0.6568 H          1           0.4374
      4 H3          2.6538   -21.5620     0.0650 H          1           0.4315
      5 C1          1.7518   -19.7341    -0.0334 C.3        1          -0.0125
      6 C2          2.6693   -19.2126    -1.1411 C.3        1          -0.1326
      7 C3          2.1412   -19.6746    -2.5007 C.3        1          -0.1451
      8 C4          2.1098   -21.1807    -2.5420 C.2        1           0.5207
      9 O1          2.9138   -21.8218    -1.8989 O.2        1          -0.5500
     10 N2          1.1886   -21.8152    -3.2937 N.am       1          -0.7027
     11 C5          1.1583   -23.2793    -3.3340 C.3        1           0.1472
     12 C6          0.5352   -23.7835    -4.6402 C.3        1          -0.0863
     13 C7         -0.9500   -23.7900    -4.3772 C.ar       1          -0.1082
     14 C8         -2.0283   -23.7690    -5.2452 C.ar       1          -0.1127
     15 C9         -3.3177   -23.7808    -4.7498 C.ar       1          -0.1291
     16 C10        -3.5323   -23.8140    -3.3844 C.ar       1          -0.1224
     17 C11        -2.4571   -23.8354    -2.5174 C.ar       1          -0.0882
     18 C12        -1.1645   -23.8231    -3.0128 C.ar       1          -0.0613
     19 C13         0.1684   -23.8401    -2.3072 C.3        1          -0.0348
     20 C14         0.5509   -25.2712    -1.9242 C.3        1          -0.0623
     21 C15        -0.1370   -25.6477    -0.6373 C.ar       1          -0.0466
     22 C16        -1.3802   -26.2395    -0.6680 C.ar       1          -0.1348
     23 C17        -2.0187   -26.5894     0.5105 C.ar       1          -0.1230
     24 C18        -1.4141   -26.3487     1.7337 C.ar       1           0.0229
     25 O2         -2.0536   -26.7024     2.8822 O.3        1          -0.3061
     26 C19        -1.5852   -26.0964     4.0911 C.3        1           0.0553
     27 C20        -1.9836   -24.6195     4.1201 C.3        1          -0.0858
     28 C21        -3.5076   -24.5010     4.0530 C.3        1          -0.1739
     29 C22        -4.1192   -25.2095     5.2342 C.2        1           0.4891
     30 O3         -4.3216   -24.6020     6.2716 O.co2      1          -0.6937
     31 O4         -4.4112   -26.3904     5.1523 O.co2      1          -0.7135
     32 C23        -0.0573   -26.2237     4.1065 C.3        1           0.0167
     33 O5          0.4431   -25.5070     2.9734 O.3        1          -0.2598
     34 C24        -0.1598   -25.7512     1.7821 C.ar       1           0.0834
     35 C25         0.4895   -25.4014     0.5894 C.ar       1          -0.1352
     36 C26         1.8206   -24.7745     0.6279 C.2        1           0.5214
     37 O6          2.8258   -25.4713     0.6052 O.co2      1          -0.6802
     38 O7          1.9216   -23.5565     0.6827 O.co2      1          -0.6650
     39 H4          0.7445   -19.3456    -0.1830 H          1           0.1394
     40 H5          2.1281   -19.4050     0.9352 H          1           0.1330
     41 H6          2.6919   -18.1231    -1.1112 H          1           0.0919
     42 H7          3.6767   -19.6010    -0.9916 H          1           0.0976
     43 H8          1.1338   -19.2860    -2.6502 H          1           0.1076
     44 H9          2.7948   -19.3030    -3.2898 H          1           0.1006
     45 H10         0.5456   -21.3024    -3.8080 H          1           0.4051
     46 H11         2.1550   -23.6950    -3.1868 H          1           0.1024
     47 H12         0.7727   -23.1062    -5.4606 H          1           0.0775
     48 H13         0.8857   -24.7909    -4.8643 H          1           0.0727
     49 H14        -1.8611   -23.7430    -6.3119 H          1           0.1123
     50 H15        -4.1576   -23.7637    -5.4286 H          1           0.1173
     51 H16        -4.5400   -23.8229    -2.9959 H          1           0.1203
     52 H17        -2.6253   -23.8609    -1.4509 H          1           0.1316
     53 H18         0.1380   -23.2043    -1.4223 H          1           0.1092
     54 H19         0.2410   -25.9541    -2.7151 H          1           0.1181
     55 H20         1.6309   -25.3353    -1.7912 H          1           0.0460
     56 H21        -1.8602   -26.4314    -1.6162 H          1           0.1141
     57 H22        -2.9938   -27.0523     0.4756 H          1           0.1172
     58 H23        -2.0108   -26.6114     4.9523 H          1           0.0701
     59 H24        -1.6242   -24.1642     5.0429 H          1           0.0831
     60 H25        -1.5414   -24.1069     3.2659 H          1           0.0739
     61 H26        -3.7915   -23.4488     4.0736 H          1           0.0612
     62 H27        -3.8672   -24.9561     3.1302 H          1           0.0492
     63 H28         0.3410   -25.7907     5.0240 H          1           0.0705
     64 H29         0.2275   -27.2735     4.0358 H          1           0.1159
@<TRIPOS>BOND
     1    1    2 1
     2    1    3 1
     3    1    4 1
     4    1    5 1
     5    5    6 1
     6    5   39 1
     7    5   40 1
     8    6    7 1
     9    6   41 1
    10    6   42 1
    11    7    8 1
    12    7   43 1
    13    7   44 1
    14    8    9 2
    15    8   10 am
    16   10   11 1
    17   10   45 1
    18   11   19 1
    19   11   12 1
    20   11   46 1
    21   12   13 1
    22   12   47 1
    23   12   48 1
    24   13   18 ar
    25   13   14 ar
    26   14   15 ar
    27   14   49 1
    28   15   16 ar
    29   15   50 1
    30   16   17 ar
    31   16   51 1
    32   17   18 ar
    33   17   52 1
    34   18   19 1
    35   19   20 1
    36   19   53 1
    37   20   21 1
    38   20   54 1
    39   20   55 1
    40   21   35 ar
    41   21   22 ar
    42   22   23 ar
    43   22   56 1
    44   23   24 ar
    45   23   57 1
    46   24   34 ar
    47   24   25 1
    48   25   26 1
    49   26   27 1
    50   26   32 1
    51   26   58 1
    52   27   28 1
    53   27   59 1
    54   27   60 1
    55   28   29 1
    56   28   61 1
    57   28   62 1
    58   29   30 1
    59   29   31 2
    60   32   33 1
    61   32   63 1
    62   32   64 1
    63   33   34 1
    64   34   35 ar
    65   35   36 1
    66   36   37 1
    67   36   38 2
