AVX38785_1, 3
##########                 Name:           AVX38785_0
##########          Protonation:                   77
##########               SMILES:   C[NH+](Cc1ccccc1C(=O)NCc2ccccc2)Cc3ccc4c(c3C(=O)[O-])OC[C@@H](O4)CCC(=O)[O-]
##########            Long Name:   ]methyl]-2-(3-oxido-3-oxo-propyl)-2,3-dihydro-1,4-benzodioxine-5-carboxylate
##########          FlexRecCode: 1
##########               Number:                  115
##########   Ligand Source File: /raid1/people/rgc/Examples/sampl4/screening/ligands/build_1//sampl4-hivint-00000
##########           GlobalRank: 10
##########                 Rank:                    1
##########               Setnum:                  138
##########             Matchnum:                 1166
##########                Cloud:                    1
##########        Electrostatic:           -16.612492
##########        Van der Waals:           -29.502071
##########  Ligand Polar Desolv:             9.898132
########## Ligand Apolar Desolv:            -4.229350
##########      Internal Energy:             0.000000
##########      Receptor Energy: 0.0
########## Receptor Desolvation:             0.000000
########## Receptor Hydrophobic:             0.000000
##########         Total Energy: -40.45
##########        Ligand Charge:            -1.000000
##########            Arbitrary:    +999.9990
##########     heavy atom count:   38
##########           pose count:    1
##########        Ligand Energy:             0.000000
# num electro vdwattr vdwrepu polsolv apolsol rdesolv rhydroe totalscore fullpol fullapo
#   1    1.74   -1.67    1.04   -0.22   -0.16    0.00    0.00       0.74   -0.57   -0.41
#   2    7.36   -0.68    0.04   -0.40    0.05    0.00    0.00       6.36   -1.41    0.16
#   3   -4.39   -0.01    0.00    0.21    0.03    0.00    0.00      -4.15    1.91    0.32
#   4   -0.81   -0.56    0.03    0.05   -0.09    0.00    0.00      -1.38    0.18   -0.30
#   5    1.22   -0.69    0.04   -0.12   -0.08    0.00    0.00       0.38   -0.47   -0.30
#   6    1.99   -1.10    0.25   -0.22   -0.12    0.00    0.00       0.80   -0.75   -0.40
#   7    1.18   -0.94    0.18   -0.19   -0.13    0.00    0.00       0.09   -0.67   -0.47
#   8    0.51   -0.87    0.16   -0.19   -0.12    0.00    0.00      -0.53   -0.72   -0.47
#   9    0.13   -1.32    1.04   -0.10   -0.10    0.00    0.00      -0.35   -0.47   -0.44
#  10    0.62   -0.85    0.23   -0.12   -0.08    0.00    0.00      -0.20   -0.57   -0.40
#  11   -0.22   -0.85    0.12    0.15   -0.17    0.00    0.00      -0.98    0.53   -0.63
#  12    1.60   -0.84    0.05    0.44    0.09    0.00    0.00       1.34    1.40    0.29
#  13   -4.92   -1.47    0.56   -0.28    0.77    0.00    0.00      -5.33   -0.83    2.32
#  14    1.88   -1.01    0.11   -0.13   -0.19    0.00    0.00       0.66   -0.30   -0.44
#  15   -1.28   -2.02    0.31    0.11   -0.19    0.00    0.00      -3.08    0.22   -0.37
#  16   -1.39   -2.89    0.84    0.14   -0.29    0.00    0.00      -3.59    0.22   -0.45
#  17   -1.33   -3.55    2.28    0.18   -0.32    0.00    0.00      -2.74    0.26   -0.47
#  18   -0.58   -3.52    1.57    0.20   -0.33    0.00    0.00      -2.66    0.28   -0.47
#  19   -0.44   -3.18    1.13    0.22   -0.30    0.00    0.00      -2.57    0.35   -0.47
#  20   -0.52   -2.63    0.86    0.15   -0.23    0.00    0.00      -2.37    0.28   -0.45
#  21   -1.54   -0.84    0.16   -0.18   -0.08    0.00    0.00      -2.49   -0.59   -0.26
#  22    1.10   -1.21    0.68    0.08   -0.10    0.00    0.00       0.56    0.34   -0.39
#  23    1.51   -1.54    0.89    0.06   -0.10    0.00    0.00       0.81    0.21   -0.34
#  24    0.08   -0.82    0.28    0.12   -0.09    0.00    0.00      -0.44    0.59   -0.46
#  25    0.00   -0.44    0.10    0.02   -0.04    0.00    0.00      -0.36    0.15   -0.30
#  26    0.00   -0.14    0.01    0.45    0.04    0.00    0.00       0.36    6.31    0.62
#  27    0.01   -0.06    0.00   -0.05    0.00    0.00    0.00      -0.10   -1.66   -0.12
#  28   -0.01   -0.02    0.00    0.02    0.00    0.00    0.00      -0.02    1.39   -0.18
#  29   -0.02   -0.03    0.00    0.05    0.00    0.00    0.00       0.00    3.57   -0.24
#  30    0.13   -0.08    0.00   -0.42    0.00    0.00    0.00      -0.38  -15.59   -0.16
#  31   -0.23   -0.21    0.01    2.44   -0.04    0.00    0.00       1.97   28.47   -0.41
#  32   -0.22   -0.05    0.00    0.54   -0.01    0.00    0.00       0.26   30.39   -0.43
#  33    0.00   -0.05    0.00   -0.02    0.00    0.00    0.00      -0.07   -0.42   -0.12
#  34   -0.04   -0.12    0.01    0.62    0.02    0.00    0.00       0.49    8.69    0.27
#  35   -0.01   -0.39    0.10   -0.09   -0.04    0.00    0.00      -0.43   -0.75   -0.30
#  36    0.52   -0.62    0.23    0.70   -0.07    0.00    0.00       0.76    4.27   -0.41
#  37   -3.08   -0.33    0.03   -1.85   -0.02    0.00    0.00      -5.26  -14.11   -0.17
#  38    5.13   -0.38    0.03    2.92   -0.05    0.00    0.00       7.65   18.77   -0.33
#  39    2.70   -0.19    0.00    2.49   -0.05    0.00    0.00       4.94   27.37   -0.59
#  40   -4.63   -0.49    0.20    0.45   -0.10    0.00    0.00      -4.56    1.26   -0.28
#  41   -3.28   -0.55    0.32    0.21   -0.05    0.00    0.00      -3.36    0.69   -0.18
#  42   -2.74   -0.92    1.06    0.66   -0.08    0.00    0.00      -2.02    1.89   -0.22
#  43   -5.20   -0.29    0.06    0.04   -0.05    0.00    0.00      -5.44    0.17   -0.20
#  44   -2.53   -0.17    0.01    0.20   -0.04    0.00    0.00      -2.54    1.23   -0.27
#  45   -4.41   -0.53    0.45    0.54   -0.08    0.00    0.00      -4.03    1.92   -0.28
#  46   -2.31   -0.31    0.18    0.27   -0.05    0.00    0.00      -2.22    1.45   -0.28
#  47   -0.30   -0.18    0.01    0.25   -0.06    0.00    0.00      -0.27    1.20   -0.28
#  48    0.46   -0.32    0.24    0.19   -0.04    0.00    0.00       0.52    1.00   -0.22
#  49    3.79   -0.06    0.01    0.42    0.13    0.00    0.00       4.28    1.43    0.43
#  50    0.88   -0.39    0.12   -0.06   -0.09    0.00    0.00       0.46   -0.19   -0.28
#  51    1.57   -0.48    0.27   -0.07   -0.09    0.00    0.00       1.20   -0.20   -0.28
#  52    2.06   -0.82    0.30   -0.06   -0.15    0.00    0.00       1.33   -0.11   -0.28
#  53    1.33   -0.82    0.31   -0.01   -0.18    0.00    0.00       0.62   -0.02   -0.28
#  54   -0.08   -0.91    0.56   -0.05   -0.19    0.00    0.00      -0.68   -0.08   -0.28
#  55    0.02   -0.65    0.25   -0.10   -0.16    0.00    0.00      -0.65   -0.18   -0.28
#  56    0.15   -0.53    0.25   -0.07   -0.10    0.00    0.00      -0.30   -0.20   -0.28
#  57   -4.79   -0.56    0.29   -0.30   -0.08    0.00    0.00      -5.44   -0.93   -0.23
#  58   -3.17   -0.23    0.03   -0.21   -0.06    0.00    0.00      -3.64   -0.87   -0.26
#  59   -1.79   -0.40    0.21    0.12   -0.05    0.00    0.00      -1.91    0.43   -0.18
#  60   -0.06   -0.11    0.01   -0.14   -0.03    0.00    0.00      -0.33   -1.32   -0.28
#  61    0.03   -0.02    0.00   -0.03    0.00    0.00    0.00      -0.02   -1.76   -0.28
#  62    0.00   -0.01    0.00   -0.01    0.00    0.00    0.00      -0.01   -1.30   -0.28
#  63    0.02    0.00    0.00   -0.01    0.00    0.00    0.00       0.00   -2.01   -0.28
#  64    0.00   -0.01    0.00   -0.02    0.00    0.00    0.00      -0.03   -2.33   -0.28
#  65    0.01    0.00    0.00   -0.01    0.00    0.00    0.00      -0.01   -2.27   -0.27
#  66    0.04   -0.01    0.00   -0.03    0.00    0.00    0.00       0.00   -2.85   -0.28
#  67    0.00   -0.02    0.00   -0.03   -0.01    0.00    0.00      -0.05   -1.65   -0.28

@<TRIPOS>MOLECULE
       AVX38785_0        77
   67    70     0     0     0



@<TRIPOS>ATOM
      1 C1          2.4777   -19.2881     0.2118 C.3        1          -0.0636
      2 N1          1.7465   -20.2179    -0.6592 N.4        1          -0.3784
      3 H1          1.5252   -21.0573    -0.1449 H          1           0.4150
      4 C2          2.5800   -20.5600    -1.8195 C.3        1           0.0367
      5 C3          2.0788   -21.8394    -2.4384 C.ar       1          -0.0835
      6 C4          1.1249   -21.7983    -3.4346 C.ar       1          -0.0993
      7 C5          0.6638   -22.9718    -4.0038 C.ar       1          -0.0871
      8 C6          1.1551   -24.1937    -3.5788 C.ar       1          -0.1023
      9 C7          2.1092   -24.2488    -2.5842 C.ar       1          -0.0808
     10 C8          2.5826   -23.0680    -2.0093 C.ar       1          -0.1209
     11 C9          3.6093   -23.1192    -0.9467 C.2        1           0.5526
     12 O1          3.6397   -22.2585    -0.0889 O.2        1          -0.5409
     13 N2          4.5115   -24.1203    -0.9291 N.am       1          -0.7080
     14 C10         5.5289   -24.1710     0.1238 C.3        1           0.1573
     15 C11         6.8999   -24.1128    -0.4991 C.ar       1          -0.1170
     16 C12         7.9661   -24.7406     0.1172 C.ar       1          -0.0999
     17 C13         9.2238   -24.6873    -0.4542 C.ar       1          -0.1221
     18 C14         9.4150   -24.0066    -1.6420 C.ar       1          -0.1081
     19 C15         8.3486   -23.3796    -2.2588 C.ar       1          -0.1201
     20 C16         7.0901   -23.4365    -1.6896 C.ar       1          -0.0981
     21 C17         0.5039   -19.5835    -1.1191 C.3        1           0.0712
     22 C18        -0.5387   -19.6766    -0.0348 C.ar       1          -0.1011
     23 C19        -0.6507   -18.6730     0.9016 C.ar       1          -0.1661
     24 C20        -1.6070   -18.7510     1.9004 C.ar       1          -0.1057
     25 C21        -2.4629   -19.8393     1.9699 C.ar       1           0.0512
     26 O2         -3.3998   -19.8898     2.9564 O.3        1          -0.2969
     27 C22        -3.9914   -21.1674     3.2166 C.3        1           0.0495
     28 C23        -5.2431   -20.9903     4.0788 C.3        1          -0.0830
     29 C24        -4.8597   -20.3294     5.4044 C.3        1          -0.1800
     30 C25        -3.8679   -21.2004     6.1315 C.2        1           0.4905
     31 O3         -2.6724   -21.0495     5.9451 O.co2      1          -0.6991
     32 O4         -4.2608   -22.0560     6.9062 O.co2      1          -0.7072
     33 C26        -4.3743   -21.8025     1.8730 C.3        1           0.0169
     34 O5         -3.1854   -21.9391     1.0871 O.3        1          -0.2552
     35 C27        -2.3613   -20.8617     1.0343 C.ar       1           0.1022
     36 C28        -1.3973   -20.7799     0.0181 C.ar       1          -0.1170
     37 C29        -1.2860   -21.8523    -0.9836 C.2        1           0.5228
     38 O6         -1.9311   -21.7897    -2.0211 O.co2      1          -0.6965
     39 O7         -0.5481   -22.8064    -0.7788 O.co2      1          -0.6418
     40 H2          2.7167   -18.3814    -0.3439 H          1           0.1213
     41 H3          1.8592   -19.0343     1.0728 H          1           0.1319
     42 H4          3.3997   -19.7588     0.5529 H          1           0.1091
     43 H5          2.5279   -19.7563    -2.5540 H          1           0.1587
     44 H6          3.6132   -20.6921    -1.4983 H          1           0.1313
     45 H7          0.7371   -20.8478    -3.7704 H          1           0.1422
     46 H8         -0.0831   -22.9341    -4.7828 H          1           0.1390
     47 H9          0.7904   -25.1062    -4.0268 H          1           0.1385
     48 H10         2.4917   -25.2031    -2.2535 H          1           0.1339
     49 H11         4.4872   -24.8072    -1.6136 H          1           0.4040
     50 H12         5.3989   -23.3228     0.7959 H          1           0.0867
     51 H13         5.4242   -25.0991     0.6858 H          1           0.0854
     52 H14         7.8168   -25.2724     1.0452 H          1           0.1242
     53 H15        10.0571   -25.1772     0.0277 H          1           0.1252
     54 H16        10.3978   -23.9644    -2.0881 H          1           0.1248
     55 H17         8.4980   -22.8475    -3.1866 H          1           0.1267
     56 H18         6.2561   -22.9498    -2.1734 H          1           0.1262
     57 H19         0.6948   -18.5357    -1.3504 H          1           0.1566
     58 H20         0.1447   -20.0935    -2.0130 H          1           0.1421
     59 H21         0.0111   -17.8206     0.8570 H          1           0.1093
     60 H22        -1.6862   -17.9590     2.6302 H          1           0.1344
     61 H23        -3.2756   -21.8054     3.7347 H          1           0.0819
     62 H24        -5.9604   -20.3603     3.5528 H          1           0.0740
     63 H25        -5.6903   -21.9649     4.2745 H          1           0.0868
     64 H26        -4.4124   -19.3549     5.2086 H          1           0.0560
     65 H27        -5.7512   -20.2033     6.0186 H          1           0.0629
     66 H28        -4.8174   -22.7836     2.0431 H          1           0.1245
     67 H29        -5.0869   -21.1619     1.3533 H          1           0.0762
@<TRIPOS>BOND
     1    1    2 1
     2    1   40 1
     3    1   41 1
     4    1   42 1
     5    2    3 1
     6    2    4 1
     7    2   21 1
     8    4    5 1
     9    4   43 1
    10    4   44 1
    11    5   10 ar
    12    5    6 ar
    13    6    7 ar
    14    6   45 1
    15    7    8 ar
    16    7   46 1
    17    8    9 ar
    18    8   47 1
    19    9   10 ar
    20    9   48 1
    21   10   11 1
    22   11   12 2
    23   11   13 am
    24   13   14 1
    25   13   49 1
    26   14   15 1
    27   14   50 1
    28   14   51 1
    29   15   20 ar
    30   15   16 ar
    31   16   17 ar
    32   16   52 1
    33   17   18 ar
    34   17   53 1
    35   18   19 ar
    36   18   54 1
    37   19   20 ar
    38   19   55 1
    39   20   56 1
    40   21   22 1
    41   21   57 1
    42   21   58 1
    43   22   36 ar
    44   22   23 ar
    45   23   24 ar
    46   23   59 1
    47   24   25 ar
    48   24   60 1
    49   25   35 ar
    50   25   26 1
    51   26   27 1
    52   27   28 1
    53   27   33 1
    54   27   61 1
    55   28   29 1
    56   28   62 1
    57   28   63 1
    58   29   30 1
    59   29   64 1
    60   29   65 1
    61   30   31 1
    62   30   32 2
    63   33   34 1
    64   33   66 1
    65   33   67 1
    66   34   35 1
    67   35   36 ar
    68   36   37 1
    69   37   38 1
    70   37   39 2
