AVX38779_0, 3
##########                 Name:           AVX38779_0
##########          Protonation:                   61
##########               SMILES:   @@H](C)NC(=O)c1ccccc1C[NH+](CC=C)Cc2ccc3c(c2C(=O)[O-])OC[C@H](O3)CCC(=O)[O-]
##########            Long Name:   ]methyl]-2-(3-oxido-3-oxo-propyl)-2,3-dihydro-1,4-benzodioxine-5-carboxylate
##########          FlexRecCode: 1
##########               Number:                  559
##########   Ligand Source File: /raid1/people/rgc/Examples/sampl4/screening/ligands/build_1//sampl4-hivint-00000
##########           GlobalRank: 62
##########                 Rank:                    1
##########               Setnum:                  148
##########             Matchnum:                 4402
##########                Cloud:                    1
##########        Electrostatic:           -15.212438
##########        Van der Waals:           -20.233435
##########  Ligand Polar Desolv:            10.117188
########## Ligand Apolar Desolv:            -3.404971
##########      Internal Energy:             0.000000
##########      Receptor Energy: 0.0
########## Receptor Desolvation:             0.000000
########## Receptor Hydrophobic:             0.000000
##########         Total Energy: -28.73
##########        Ligand Charge:            -1.000000
##########            Arbitrary:    +999.9990
##########     heavy atom count:   37
##########           pose count:    1
##########        Ligand Energy:             0.000000
# num electro vdwattr vdwrepu polsolv apolsol rdesolv rhydroe totalscore fullpol fullapo
#   1   -0.74   -0.50    0.04    0.11   -0.05    0.00    0.00      -1.14    0.41   -0.20
#   2   -1.10   -0.45    0.05    0.11   -0.05    0.00    0.00      -1.44    0.51   -0.24
#   3    1.00   -0.34    0.02   -0.21   -0.05    0.00    0.00       0.43   -1.08   -0.25
#   4   -1.81   -0.70    0.15    0.48   -0.05    0.00    0.00      -1.94    1.68   -0.19
#   5   -4.15   -0.72    0.07    1.31    0.44    0.00    0.00      -3.05    5.40    1.82
#   6    0.78   -0.74    0.06   -1.15   -0.17    0.00    0.00      -1.22   -4.35   -0.63
#   7   -1.82   -1.35    0.87    1.02    0.06    0.00    0.00      -1.22    3.92    0.23
#   8    0.39   -0.98    0.08    0.29   -0.10    0.00    0.00      -0.32    0.87   -0.30
#   9    0.06   -1.59    0.24    0.41   -0.18    0.00    0.00      -1.06    0.99   -0.44
#  10    0.62   -2.51    0.75    0.49   -0.23    0.00    0.00      -0.88    0.99   -0.47
#  11    1.37   -2.69    1.53    0.24   -0.24    0.00    0.00       0.20    0.47   -0.47
#  12    2.13   -1.78    0.62    0.02   -0.17    0.00    0.00       0.82    0.04   -0.39
#  13    0.90   -0.95    0.06    0.05   -0.08    0.00    0.00      -0.01    0.16   -0.23
#  14   -0.85   -0.47    0.02    0.04   -0.08    0.00    0.00      -1.34    0.15   -0.28
#  15    6.58   -0.64    0.05   -0.04    0.02    0.00    0.00       5.96   -0.15    0.07
#  16   -4.96   -0.01    0.00   -0.26    0.03    0.00    0.00      -5.20   -2.49    0.29
#  17   -0.58   -1.25    0.30    0.04   -0.15    0.00    0.00      -1.64    0.09   -0.37
#  18    3.60   -2.28    0.98   -0.05   -0.16    0.00    0.00       2.09   -0.11   -0.35
#  19    1.25   -3.09    1.44    0.36   -0.19    0.00    0.00      -0.23    0.66   -0.34
#  20   -0.95   -0.67    0.15    0.00   -0.07    0.00    0.00      -1.54    0.00   -0.28
#  21    1.20   -0.36    0.02    0.05   -0.05    0.00    0.00       0.87    0.36   -0.31
#  22    0.70   -0.36    0.03   -0.01   -0.06    0.00    0.00       0.30   -0.09   -0.40
#  23    0.14   -0.25    0.01    0.10   -0.05    0.00    0.00      -0.04    1.03   -0.46
#  24   -0.02   -0.12    0.00    0.01   -0.02    0.00    0.00      -0.15    0.15   -0.30
#  25   -0.21   -0.07    0.00    0.26    0.02    0.00    0.00       0.01    6.81    0.62
#  26    0.03   -0.03    0.00   -0.04    0.00    0.00    0.00      -0.04   -1.74   -0.12
#  27   -0.06   -0.02    0.00    0.03    0.00    0.00    0.00      -0.05    1.48   -0.18
#  28   -0.10   -0.01    0.00    0.05    0.00    0.00    0.00      -0.07    3.64   -0.25
#  29    0.27   -0.01    0.00   -0.15    0.00    0.00    0.00       0.11  -15.82   -0.16
#  30   -0.36    0.00    0.00    0.20    0.00    0.00    0.00      -0.17   28.85   -0.41
#  31   -0.41   -0.02    0.00    0.33    0.00    0.00    0.00      -0.11   30.70   -0.43
#  32    0.01   -0.06    0.00   -0.02    0.00    0.00    0.00      -0.07   -0.49   -0.12
#  33   -0.05   -0.11    0.00    0.50    0.02    0.00    0.00       0.35    8.21    0.27
#  34   -0.11   -0.13    0.00   -0.01   -0.01    0.00    0.00      -0.26   -0.18   -0.30
#  35    0.64   -0.23    0.00    0.31   -0.04    0.00    0.00       0.68    3.38   -0.40
#  36   -3.23   -0.40    0.02   -1.70   -0.02    0.00    0.00      -5.33  -11.44   -0.15
#  37    4.34   -0.46    0.04    1.95   -0.04    0.00    0.00       5.83   11.30   -0.22
#  38    2.87   -0.48    0.02    5.61   -0.14    0.00    0.00       7.88   24.32   -0.59
#  39    0.21   -0.18    0.01   -0.03   -0.06    0.00    0.00      -0.04   -0.16   -0.28
#  40    0.11   -0.08    0.00   -0.01   -0.02    0.00    0.00       0.01   -0.16   -0.26
#  41    0.31   -0.30    0.13   -0.03   -0.06    0.00    0.00       0.04   -0.16   -0.28
#  42    0.43   -0.08    0.00   -0.03   -0.02    0.00    0.00       0.31   -0.32   -0.28
#  43    1.04   -0.37    0.24   -0.07   -0.07    0.00    0.00       0.77   -0.31   -0.28
#  44    0.31   -0.06    0.00   -0.03   -0.02    0.00    0.00       0.20   -0.60   -0.26
#  45    0.97   -0.62    1.16    0.00   -0.07    0.00    0.00       1.44   -0.01   -0.28
#  46    0.48   -0.14    0.01   -0.11   -0.04    0.00    0.00       0.21   -0.77   -0.28
#  47    0.92   -0.37    0.19   -0.12   -0.08    0.00    0.00       0.54   -0.41   -0.28
#  48    2.95   -0.02    0.00   -0.57    0.09    0.00    0.00       2.46   -2.76    0.45
#  49    0.80   -0.27    0.02   -0.25   -0.06    0.00    0.00       0.24   -0.95   -0.22
#  50   -0.43   -0.70    0.38   -0.36   -0.13    0.00    0.00      -1.24   -0.81   -0.28
#  51   -2.18   -0.90    1.13   -0.14   -0.15    0.00    0.00      -2.24   -0.26   -0.28
#  52   -4.01   -0.46    0.18    0.30   -0.10    0.00    0.00      -4.09    0.85   -0.28
#  53   -1.45   -0.10    0.00    0.18   -0.02    0.00    0.00      -1.40    2.08   -0.27
#  54   -4.19   -0.21    0.02    0.07   -0.03    0.00    0.00      -4.33    0.40   -0.15
#  55   -4.61   -0.88    0.73    0.11   -0.08    0.00    0.00      -4.73    0.27   -0.20
#  56   -2.61   -0.40    0.15    0.78   -0.10    0.00    0.00      -2.18    2.22   -0.28
#  57   -3.01   -0.66    0.92    0.05   -0.07    0.00    0.00      -2.76    0.16   -0.22
#  58   -0.56   -0.71    0.21   -0.21   -0.16    0.00    0.00      -1.42   -0.38   -0.28
#  59   -0.68   -1.17    2.28   -0.20   -0.15    0.00    0.00       0.08   -0.35   -0.27
#  60   -4.04   -0.29    0.05   -0.09   -0.04    0.00    0.00      -4.40   -0.33   -0.14
#  61   -2.68   -0.53    0.85    0.34   -0.06    0.00    0.00      -2.08    1.59   -0.27
#  62   -1.14   -0.10    0.01    0.08   -0.03    0.00    0.00      -1.18    0.81   -0.28
#  63    0.07   -0.06    0.00   -0.08   -0.02    0.00    0.00      -0.07   -1.39   -0.28
#  64    0.04   -0.01    0.00   -0.02    0.00    0.00    0.00       0.01   -1.80   -0.28
#  65    0.06    0.00    0.00   -0.02    0.00    0.00    0.00       0.03   -2.07   -0.28
#  66    0.06   -0.01    0.00   -0.02    0.00    0.00    0.00       0.04   -1.19   -0.28
#  67    0.04   -0.01    0.00   -0.02    0.00    0.00    0.00       0.01   -2.23   -0.27
#  68    0.03    0.00    0.00   -0.01    0.00    0.00    0.00       0.01   -2.42   -0.28
#  69    0.07   -0.02    0.00   -0.03   -0.01    0.00    0.00       0.01   -1.44   -0.28
#  70    0.10   -0.02    0.00   -0.06   -0.01    0.00    0.00       0.01   -2.82   -0.28

@<TRIPOS>MOLECULE
       AVX38779_0        61
   70    72     0     0     0



@<TRIPOS>ATOM
      1 C1          1.7546   -26.7115    -1.6806 C.3        1          -0.1521
      2 C2          2.1857   -26.6896    -0.2128 C.3        1          -0.1344
      3 C3          2.1516   -25.2512     0.3074 C.3        1           0.1437
      4 C4          2.5827   -25.2294     1.7753 C.3        1          -0.1655
      5 N1          3.0670   -24.4243    -0.4827 N.am       1          -0.7094
      6 C5          3.2026   -23.1129    -0.2027 C.2        1           0.5743
      7 O1          2.5653   -22.6163     0.7055 O.2        1          -0.5618
      8 C6          4.1264   -22.2783    -1.0002 C.ar       1          -0.0767
      9 C7          5.4862   -22.5896    -1.0502 C.ar       1          -0.0703
     10 C8          6.3427   -21.8072    -1.7965 C.ar       1          -0.1008
     11 C9          5.8567   -20.7154    -2.4941 C.ar       1          -0.0902
     12 C10         4.5101   -20.4015    -2.4487 C.ar       1          -0.0995
     13 C11         3.6418   -21.1793    -1.7106 C.ar       1          -0.0576
     14 C12         2.1744   -20.8392    -1.6669 C.3        1           0.0442
     15 N2          1.4771   -21.5381    -2.7546 N.4        1          -0.3540
     16 H1          1.5949   -22.5342    -2.6443 H          1           0.4383
     17 C13         2.0387   -21.1187    -4.0457 C.3        1           0.0230
     18 C14         1.7026   -22.1449    -5.0969 C.2        1          -0.1877
     19 C15         2.6625   -22.7647    -5.7377 C.2        1          -0.1345
     20 C16         0.0467   -21.2067    -2.7120 C.3        1           0.0472
     21 C17        -0.6309   -22.0396    -1.6545 C.ar       1          -0.1300
     22 C18        -0.7251   -21.5703    -0.3632 C.ar       1          -0.1184
     23 C19        -1.3444   -22.3310     0.6145 C.ar       1          -0.1212
     24 C20        -1.8767   -23.5732     0.3060 C.ar       1           0.0629
     25 O2         -2.4731   -24.3062     1.2861 O.3        1          -0.2958
     26 C21        -3.3211   -25.3789     0.8612 C.3        1           0.0501
     27 C22        -3.6193   -26.3005     2.0455 C.3        1          -0.0835
     28 C23        -4.3221   -25.5044     3.1469 C.3        1          -0.1801
     29 C24        -4.6159   -26.4122     4.3134 C.2        1           0.4905
     30 O3         -5.3253   -27.3918     4.1599 O.co2      1          -0.6991
     31 O4         -4.1441   -26.1671     5.4106 O.co2      1          -0.7065
     32 C25        -2.5891   -26.1650    -0.2349 C.3        1           0.0178
     33 O5         -2.3122   -25.2711    -1.3185 O.3        1          -0.2584
     34 C26        -1.7928   -24.0597    -0.9930 C.ar       1           0.0870
     35 C27        -1.1696   -23.2876    -1.9849 C.ar       1          -0.1234
     36 C28        -1.0778   -23.7909    -3.3649 C.2        1           0.5218
     37 O6         -1.9657   -23.5393    -4.1680 O.co2      1          -0.6916
     38 O7         -0.1135   -24.4606    -3.7088 O.co2      1          -0.6354
     39 H2          1.7791   -27.7363    -2.0513 H          1           0.0546
     40 H3          0.7421   -26.3176    -1.7678 H          1           0.0541
     41 H4          2.4357   -26.0963    -2.2686 H          1           0.0564
     42 H5          1.5047   -27.3050     0.3751 H          1           0.0800
     43 H6          3.1984   -27.0836    -0.1257 H          1           0.0695
     44 H7          1.1391   -24.8573     0.2202 H          1           0.0898
     45 H8          2.5583   -24.2046     2.1459 H          1           0.0637
     46 H9          1.9016   -25.8446     2.3632 H          1           0.0644
     47 H10         3.5953   -25.6233     1.8625 H          1           0.0601
     48 H11         3.5757   -24.8205    -1.2074 H          1           0.4010
     49 H12         5.8671   -23.4410    -0.5057 H          1           0.1224
     50 H13         7.3950   -22.0470    -1.8362 H          1           0.1277
     51 H14         6.5316   -20.1055    -3.0763 H          1           0.1274
     52 H15         4.1372   -19.5478    -2.9951 H          1           0.1273
     53 H16         1.7576   -21.1504    -0.7090 H          1           0.1132
     54 H17         2.0469   -19.7632    -1.7860 H          1           0.1442
     55 H18         1.6157   -20.1553    -4.3301 H          1           0.1241
     56 H19         3.1215   -21.0288    -3.9588 H          1           0.1203
     57 H20         0.6704   -22.3694    -5.3217 H          1           0.1307
     58 H21         2.4215   -23.5002    -6.4910 H          1           0.1112
     59 H22         3.6946   -22.5402    -5.5128 H          1           0.1029
     60 H23        -0.0745   -20.1496    -2.4750 H          1           0.1682
     61 H24        -0.4037   -21.4153    -3.6826 H          1           0.1022
     62 H25        -0.3134   -20.6040    -0.1114 H          1           0.1269
     63 H26        -1.4129   -21.9540     1.6243 H          1           0.1354
     64 H27        -4.2531   -24.9758     0.4652 H          1           0.0807
     65 H28        -4.2650   -27.1155     1.7180 H          1           0.0864
     66 H29        -2.6858   -26.7095     2.4318 H          1           0.0744
     67 H30        -3.6766   -24.6894     3.4743 H          1           0.0635
     68 H31        -5.2557   -25.0956     2.7605 H          1           0.0555
     69 H32        -1.6549   -26.5640     0.1604 H          1           0.0756
     70 H33        -3.2198   -26.9823    -0.5845 H          1           0.1230
@<TRIPOS>BOND
     1    1    2 1
     2    1   39 1
     3    1   40 1
     4    1   41 1
     5    2    3 1
     6    2   42 1
     7    2   43 1
     8    3    4 1
     9    3    5 1
    10    3   44 1
    11    4   45 1
    12    4   46 1
    13    4   47 1
    14    5    6 am
    15    5   48 1
    16    6    7 2
    17    6    8 1
    18    8   13 ar
    19    8    9 ar
    20    9   10 ar
    21    9   49 1
    22   10   11 ar
    23   10   50 1
    24   11   12 ar
    25   11   51 1
    26   12   13 ar
    27   12   52 1
    28   13   14 1
    29   14   15 1
    30   14   53 1
    31   14   54 1
    32   15   16 1
    33   15   17 1
    34   15   20 1
    35   17   18 1
    36   17   55 1
    37   17   56 1
    38   18   19 2
    39   18   57 1
    40   19   58 1
    41   19   59 1
    42   20   21 1
    43   20   60 1
    44   20   61 1
    45   21   35 ar
    46   21   22 ar
    47   22   23 ar
    48   22   62 1
    49   23   24 ar
    50   23   63 1
    51   24   34 ar
    52   24   25 1
    53   25   26 1
    54   26   27 1
    55   26   32 1
    56   26   64 1
    57   27   28 1
    58   27   65 1
    59   27   66 1
    60   28   29 1
    61   28   67 1
    62   28   68 1
    63   29   30 1
    64   29   31 2
    65   32   33 1
    66   32   69 1
    67   32   70 1
    68   33   34 1
    69   34   35 ar
    70   35   36 1
    71   36   37 1
    72   36   38 2
