AVX38787_1, 3
##########                 Name:           AVX38787_0
##########          Protonation:                   77
##########               SMILES:   C[NH+](Cc1ccccc1C(=O)NCC2CCCCC2)Cc3ccc4c(c3C(=O)[O-])OC[C@@H](O4)CCC(=O)[O-]
##########            Long Name:   ]methyl]-2-(3-oxido-3-oxo-propyl)-2,3-dihydro-1,4-benzodioxine-5-carboxylate
##########          FlexRecCode: 1
##########               Number:                  133
##########   Ligand Source File: /raid1/people/rgc/Examples/sampl4/screening/ligands/build_1//sampl4-hivint-00000
##########           GlobalRank: 43
##########                 Rank:                    1
##########               Setnum:                  191
##########             Matchnum:                 4708
##########                Cloud:                    1
##########        Electrostatic:           -19.365627
##########        Van der Waals:           -21.094538
##########  Ligand Polar Desolv:            11.550539
########## Ligand Apolar Desolv:            -3.109555
##########      Internal Energy:             0.000000
##########      Receptor Energy: 0.0
########## Receptor Desolvation:             0.000000
########## Receptor Hydrophobic:             0.000000
##########         Total Energy: -32.02
##########        Ligand Charge:            -1.000000
##########            Arbitrary:    +999.9990
##########     heavy atom count:   38
##########           pose count:    1
##########        Ligand Energy:             0.000000
# num electro vdwattr vdwrepu polsolv apolsol rdesolv rhydroe totalscore fullpol fullapo
#   1    2.11   -1.05    0.18   -0.22   -0.16    0.00    0.00       0.86   -0.56   -0.41
#   2    7.49   -0.65    0.04   -0.37    0.04    0.00    0.00       6.56   -1.33    0.16
#   3   -5.38   -0.01    0.00    0.27    0.05    0.00    0.00      -5.07    1.81    0.32
#   4   -0.67   -0.45    0.02    0.04   -0.08    0.00    0.00      -1.14    0.17   -0.30
#   5    1.28   -0.93    0.06   -0.16   -0.10    0.00    0.00       0.15   -0.49   -0.30
#   6    2.19   -1.71    0.51   -0.34   -0.18    0.00    0.00       0.47   -0.76   -0.40
#   7    1.51   -2.57    0.91   -0.36   -0.24    0.00    0.00      -0.76   -0.70   -0.47
#   8    0.84   -3.24    1.86   -0.39   -0.24    0.00    0.00      -1.17   -0.78   -0.47
#   9    0.15   -1.71    0.29   -0.22   -0.18    0.00    0.00      -1.67   -0.52   -0.44
#  10    0.62   -0.98    0.08   -0.20   -0.13    0.00    0.00      -0.62   -0.61   -0.40
#  11    0.89   -0.73    0.05    0.16   -0.17    0.00    0.00       0.21    0.62   -0.63
#  12   -0.13   -0.59    0.08    0.33    0.06    0.00    0.00      -0.25    1.61    0.29
#  13   -6.20   -0.88    0.08   -0.41    0.64    0.00    0.00      -6.77   -1.40    2.20
#  14    1.17   -0.53    0.08   -0.04   -0.09    0.00    0.00       0.59   -0.17   -0.38
#  15   -0.95   -0.57    0.10    0.00   -0.04    0.00    0.00      -1.47   -0.01   -0.15
#  16   -0.54   -0.48    0.05   -0.02   -0.05    0.00    0.00      -1.04   -0.09   -0.22
#  17   -0.38   -0.82    0.10   -0.01   -0.08    0.00    0.00      -1.20   -0.03   -0.25
#  18   -0.11   -0.53    0.03    0.07   -0.07    0.00    0.00      -0.61    0.23   -0.25
#  19   -0.29   -0.43    0.02    0.08   -0.07    0.00    0.00      -0.68    0.30   -0.25
#  20   -0.61   -0.35    0.03    0.05   -0.04    0.00    0.00      -0.91    0.32   -0.22
#  21   -1.19   -0.60    0.09   -0.16   -0.07    0.00    0.00      -1.92   -0.62   -0.26
#  22    0.73   -0.42    0.03    0.06   -0.06    0.00    0.00       0.34    0.36   -0.39
#  23    1.04   -0.26    0.01    0.02   -0.04    0.00    0.00       0.78    0.23   -0.34
#  24    0.21   -0.15    0.00    0.04   -0.03    0.00    0.00       0.06    0.59   -0.46
#  25    0.00   -0.13    0.00    0.01   -0.02    0.00    0.00      -0.14    0.13   -0.30
#  26   -0.23   -0.06    0.00    0.22    0.02    0.00    0.00      -0.05    6.32    0.62
#  27    0.04   -0.04    0.00   -0.05    0.00    0.00    0.00      -0.05   -1.66   -0.12
#  28   -0.06   -0.02    0.00    0.03    0.00    0.00    0.00      -0.06    1.39   -0.18
#  29   -0.12   -0.02    0.00    0.06    0.00    0.00    0.00      -0.08    3.57   -0.24
#  30    0.32   -0.02    0.00   -0.21    0.00    0.00    0.00       0.09  -15.60   -0.16
#  31   -0.40   -0.01    0.00    0.25    0.00    0.00    0.00      -0.16   28.48   -0.41
#  32   -0.51   -0.03    0.00    0.59   -0.01    0.00    0.00       0.04   30.39   -0.43
#  33    0.02   -0.15    0.01   -0.04   -0.01    0.00    0.00      -0.17   -0.42   -0.12
#  34   -0.20   -0.27    0.02    0.91    0.03    0.00    0.00       0.50    8.72    0.27
#  35    0.06   -0.28    0.02   -0.08   -0.03    0.00    0.00      -0.30   -0.77   -0.30
#  36    0.27   -0.42    0.04    0.63   -0.06    0.00    0.00       0.46    4.31   -0.41
#  37   -1.53   -0.69    0.10   -2.96   -0.04    0.00    0.00      -5.11  -14.20   -0.17
#  38    1.65   -1.85    1.21    5.13   -0.09    0.00    0.00       6.05   18.94   -0.33
#  39    0.98   -0.55    0.08    5.29   -0.11    0.00    0.00       5.68   27.45   -0.59
#  40   -5.70   -0.75    1.16    0.23   -0.06    0.00    0.00      -5.12    0.68   -0.18
#  41   -3.68   -0.36    0.06    0.66   -0.08    0.00    0.00      -3.39    1.88   -0.22
#  42   -4.14   -0.36    0.10    0.34   -0.08    0.00    0.00      -4.13    1.22   -0.28
#  43   -1.80   -0.08    0.00    0.01   -0.01    0.00    0.00      -1.89    0.12   -0.20
#  44   -3.38   -0.21    0.02    0.25   -0.06    0.00    0.00      -3.38    1.16   -0.27
#  45   -4.54   -0.45    0.16    0.64   -0.10    0.00    0.00      -4.28    1.87   -0.28
#  46   -2.84   -0.73    0.35    0.77   -0.15    0.00    0.00      -2.60    1.46   -0.28
#  47   -0.87   -1.57    3.46    0.63   -0.13    0.00    0.00       1.52    1.33   -0.28
#  48    0.78   -0.31    0.03    0.36   -0.06    0.00    0.00       0.79    1.26   -0.22
#  49    4.73   -0.02    0.00    0.50    0.09    0.00    0.00       5.30    2.20    0.39
#  50    1.07   -0.28    0.13   -0.03   -0.06    0.00    0.00       0.83   -0.14   -0.28
#  51    0.51   -0.09    0.01   -0.02   -0.03    0.00    0.00       0.38   -0.16   -0.28
#  52    1.33   -0.41    0.23    0.04   -0.08    0.00    0.00       1.11    0.13   -0.28
#  53    0.13   -0.06    0.00    0.00   -0.02    0.00    0.00       0.05   -0.04   -0.28
#  54    0.26   -0.30    0.17    0.05   -0.05    0.00    0.00       0.14    0.26   -0.24
#  55    0.12   -0.31    0.05    0.01   -0.08    0.00    0.00      -0.22    0.02   -0.28
#  56    0.32   -0.46    0.11    0.02   -0.09    0.00    0.00      -0.11    0.07   -0.28
#  57    0.07   -0.09    0.00   -0.01   -0.02    0.00    0.00      -0.05   -0.14   -0.28
#  58   -0.15   -0.30    0.04   -0.04   -0.08    0.00    0.00      -0.52   -0.12   -0.28
#  59    0.05   -0.10    0.00   -0.02   -0.03    0.00    0.00      -0.10   -0.18   -0.28
#  60    0.22   -0.20    0.01   -0.03   -0.07    0.00    0.00      -0.07   -0.13   -0.28
#  61    0.36   -0.16    0.03   -0.03   -0.04    0.00    0.00       0.17   -0.20   -0.28
#  62    0.22   -0.04    0.00   -0.01   -0.01    0.00    0.00       0.15   -0.20   -0.28
#  63   -2.51   -0.30    0.12   -0.22   -0.05    0.00    0.00      -2.97   -0.97   -0.23
#  64   -3.09   -0.26    0.04   -0.23   -0.07    0.00    0.00      -3.61   -0.90   -0.26
#  65   -1.14   -0.07    0.00    0.02   -0.01    0.00    0.00      -1.19    0.39   -0.18
#  66   -0.17   -0.03    0.00   -0.04   -0.01    0.00    0.00      -0.24   -1.34   -0.28
#  67    0.04   -0.01    0.00   -0.02    0.00    0.00    0.00       0.01   -1.76   -0.28
#  68    0.07   -0.01    0.00   -0.02    0.00    0.00    0.00       0.03   -1.29   -0.28
#  69    0.06    0.00    0.00   -0.02    0.00    0.00    0.00       0.03   -2.02   -0.28
#  70    0.03    0.00    0.00   -0.02    0.00    0.00    0.00       0.01   -2.33   -0.28
#  71    0.04   -0.01    0.00   -0.03    0.00    0.00    0.00       0.01   -2.27   -0.27
#  72    0.09   -0.03    0.00   -0.07   -0.01    0.00    0.00      -0.02   -2.86   -0.28
#  73    0.10   -0.08    0.01   -0.13   -0.02    0.00    0.00      -0.13   -1.65   -0.28

@<TRIPOS>MOLECULE
       AVX38787_0        77
   73    76     0     0     0



@<TRIPOS>ATOM
      1 C1          2.2040   -18.9144    -0.9594 C.3        1          -0.0635
      2 N1          1.5840   -20.2427    -0.8626 N.4        1          -0.3783
      3 H1          1.7924   -20.6464     0.0383 H          1           0.4150
      4 C2          2.1160   -21.1097    -1.9225 C.3        1           0.0368
      5 C3          3.6089   -21.2394    -1.7633 C.ar       1          -0.0839
      6 C4          4.4513   -20.3417    -2.3866 C.ar       1          -0.0991
      7 C5          5.8220   -20.4594    -2.2415 C.ar       1          -0.0876
      8 C6          6.3577   -21.4766    -1.4712 C.ar       1          -0.1022
      9 C7          5.5267   -22.3804    -0.8425 C.ar       1          -0.0816
     10 C8          4.1424   -22.2642    -0.9804 C.ar       1          -0.1209
     11 C9          3.2456   -23.2258    -0.3047 C.2        1           0.5516
     12 O1          2.1350   -22.8780     0.0461 O.2        1          -0.5413
     13 N2          3.6593   -24.4882    -0.0777 N.am       1          -0.7107
     14 C10         2.7707   -25.4412     0.5919 C.3        1           0.1172
     15 C11         2.5102   -26.6320    -0.3327 C.3        1          -0.0993
     16 C12         1.8518   -26.1409    -1.6236 C.3        1          -0.1153
     17 C13         1.5912   -27.3318    -2.5482 C.3        1          -0.1198
     18 C14         0.6631   -28.3270    -1.8490 C.3        1          -0.1221
     19 C15         1.3215   -28.8180    -0.5582 C.3        1          -0.1195
     20 C16         1.5820   -27.6273     0.3666 C.3        1          -0.1138
     21 C17         0.1288   -20.1163    -1.0179 C.3        1           0.0713
     22 C18        -0.5453   -21.3375    -0.4473 C.ar       1          -0.1010
     23 C19        -0.7815   -22.4321    -1.2489 C.ar       1          -0.1660
     24 C20        -1.3995   -23.5583    -0.7313 C.ar       1          -0.1056
     25 C21        -1.7876   -23.5979     0.5988 C.ar       1           0.0512
     26 O2         -2.3865   -24.7193     1.0865 O.3        1          -0.2969
     27 C22        -3.0950   -24.5839     2.3232 C.3        1           0.0495
     28 C23        -3.3960   -25.9689     2.8996 C.3        1          -0.0830
     29 C24        -4.2528   -26.7586     1.9080 C.3        1          -0.1801
     30 C25        -4.5493   -28.1228     2.4757 C.2        1           0.4906
     31 O3         -5.1499   -28.2263     3.5317 O.co2      1          -0.6991
     32 O4         -4.1887   -29.1229     1.8789 O.co2      1          -0.7072
     33 C26        -2.2104   -23.7978     3.3004 C.3        1           0.0169
     34 O5         -1.9358   -22.5160     2.7245 O.3        1          -0.2553
     35 C27        -1.5588   -22.5008     1.4203 C.ar       1           0.1022
     36 C28        -0.9266   -21.3623     0.8985 C.ar       1          -0.1171
     37 C29        -0.6712   -20.1975     1.7610 C.2        1           0.5229
     38 O6          0.3807   -20.1136     2.3800 O.co2      1          -0.6965
     39 O7         -1.5107   -19.3130     1.8590 O.co2      1          -0.6418
     40 H2          1.9788   -18.4785    -1.9327 H          1           0.1319
     41 H3          1.8094   -18.2711    -0.1731 H          1           0.1091
     42 H4          3.2839   -19.0083    -0.8444 H          1           0.1213
     43 H5          1.6560   -22.0953    -1.8507 H          1           0.1586
     44 H6          1.8909   -20.6737    -2.8958 H          1           0.1311
     45 H7          4.0396   -19.5458    -2.9894 H          1           0.1421
     46 H8          6.4770   -19.7544    -2.7317 H          1           0.1389
     47 H9          7.4286   -21.5633    -1.3625 H          1           0.1385
     48 H10         5.9459   -23.1738    -0.2415 H          1           0.1333
     49 H11         4.5457   -24.7658    -0.3577 H          1           0.4022
     50 H12         3.2398   -25.7910     1.5116 H          1           0.0785
     51 H13         1.8259   -24.9520     0.8293 H          1           0.0771
     52 H14         3.4548   -27.1212    -0.5701 H          1           0.0784
     53 H15         0.9071   -25.6517    -1.3862 H          1           0.0666
     54 H16         2.5130   -25.4319    -2.1218 H          1           0.0575
     55 H17         1.1222   -26.9819    -3.4679 H          1           0.0623
     56 H18         2.5360   -27.8210    -2.7855 H          1           0.0618
     57 H19        -0.2816   -27.8377    -1.6117 H          1           0.0625
     58 H20         0.4774   -29.1753    -2.5077 H          1           0.0620
     59 H21         0.6603   -29.5270    -0.0599 H          1           0.0658
     60 H22         2.2662   -29.3072    -0.7954 H          1           0.0626
     61 H23         2.0510   -27.9771     1.2861 H          1           0.0691
     62 H24         0.6373   -27.1379     0.6039 H          1           0.0677
     63 H25        -0.2175   -19.2291    -0.4877 H          1           0.1565
     64 H26        -0.1173   -20.0265    -2.0760 H          1           0.1419
     65 H27        -0.4834   -22.4122    -2.2868 H          1           0.1092
     66 H28        -1.5804   -24.4114    -1.3686 H          1           0.1344
     67 H29        -4.0274   -24.0450     2.1555 H          1           0.0819
     68 H30        -2.4607   -26.5003     3.0753 H          1           0.0740
     69 H31        -3.9352   -25.8614     3.8406 H          1           0.0867
     70 H32        -5.1881   -26.2271     1.7323 H          1           0.0560
     71 H33        -3.7136   -26.8661     0.9669 H          1           0.0629
     72 H34        -2.7331   -23.6705     4.2484 H          1           0.1245
     73 H35        -1.2762   -24.3349     3.4642 H          1           0.0762
@<TRIPOS>BOND
     1    1    2 1
     2    1   40 1
     3    1   41 1
     4    1   42 1
     5    2    3 1
     6    2    4 1
     7    2   21 1
     8    4    5 1
     9    4   43 1
    10    4   44 1
    11    5   10 ar
    12    5    6 ar
    13    6    7 ar
    14    6   45 1
    15    7    8 ar
    16    7   46 1
    17    8    9 ar
    18    8   47 1
    19    9   10 ar
    20    9   48 1
    21   10   11 1
    22   11   12 2
    23   11   13 am
    24   13   14 1
    25   13   49 1
    26   14   15 1
    27   14   50 1
    28   14   51 1
    29   15   20 1
    30   15   16 1
    31   15   52 1
    32   16   17 1
    33   16   53 1
    34   16   54 1
    35   17   18 1
    36   17   55 1
    37   17   56 1
    38   18   19 1
    39   18   57 1
    40   18   58 1
    41   19   20 1
    42   19   59 1
    43   19   60 1
    44   20   61 1
    45   20   62 1
    46   21   22 1
    47   21   63 1
    48   21   64 1
    49   22   36 ar
    50   22   23 ar
    51   23   24 ar
    52   23   65 1
    53   24   25 ar
    54   24   66 1
    55   25   35 ar
    56   25   26 1
    57   26   27 1
    58   27   28 1
    59   27   33 1
    60   27   67 1
    61   28   29 1
    62   28   68 1
    63   28   69 1
    64   29   30 1
    65   29   70 1
    66   29   71 1
    67   30   31 1
    68   30   32 2
    69   33   34 1
    70   33   72 1
    71   33   73 1
    72   34   35 1
    73   35   36 ar
    74   36   37 1
    75   37   38 1
    76   37   39 2
