AVX38789_1, 3
##########                 Name:           AVX38789_0
##########          Protonation:                   77
##########               SMILES:   C[NH+](Cc1ccccc1C(=O)NCc2ccco2)Cc3ccc4c(c3C(=O)[O-])OC[C@H](O4)CCC(=O)[O-]
##########            Long Name:   ]methyl]-2-(3-oxido-3-oxo-propyl)-2,3-dihydro-1,4-benzodioxine-5-carboxylate
##########          FlexRecCode: 1
##########               Number:                  209
##########   Ligand Source File: /raid1/people/rgc/Examples/sampl4/screening/ligands/build_1//sampl4-hivint-00000
##########           GlobalRank: 22
##########                 Rank:                    1
##########               Setnum:                   84
##########             Matchnum:                 4532
##########                Cloud:                    1
##########        Electrostatic:           -20.645004
##########        Van der Waals:           -26.427567
##########  Ligand Polar Desolv:            12.936782
########## Ligand Apolar Desolv:            -3.013767
##########      Internal Energy:             0.000000
##########      Receptor Energy: 0.0
########## Receptor Desolvation:             0.000000
########## Receptor Hydrophobic:             0.000000
##########         Total Energy: -37.15
##########        Ligand Charge:            -1.000000
##########            Arbitrary:    +999.9990
##########     heavy atom count:   37
##########           pose count:    1
##########        Ligand Energy:             0.000000
# num electro vdwattr vdwrepu polsolv apolsol rdesolv rhydroe totalscore fullpol fullapo
#   1    0.55   -0.30    0.02   -0.11   -0.07    0.00    0.00       0.08   -0.61   -0.41
#   2    2.55   -0.27    0.01   -0.20    0.02    0.00    0.00       2.11   -1.54    0.16
#   3   -1.10   -0.01    0.00    0.16    0.02    0.00    0.00      -0.93    2.12    0.32
#   4   -0.48   -0.33    0.01    0.04   -0.06    0.00    0.00      -0.83    0.19   -0.30
#   5    1.55   -0.72    0.03   -0.13   -0.08    0.00    0.00       0.64   -0.49   -0.30
#   6    3.04   -1.47    0.44   -0.26   -0.14    0.00    0.00       1.61   -0.76   -0.40
#   7    3.35   -1.95    0.50   -0.31   -0.22    0.00    0.00       1.38   -0.67   -0.47
#   8    3.32   -2.46    1.30   -0.36   -0.24    0.00    0.00       1.55   -0.72   -0.47
#   9    1.52   -1.75    0.42   -0.19   -0.18    0.00    0.00      -0.18   -0.47   -0.44
#  10    1.60   -0.88    0.05   -0.19   -0.13    0.00    0.00       0.47   -0.59   -0.40
#  11   -1.42   -1.16    0.38    0.19   -0.18    0.00    0.00      -2.20    0.65   -0.63
#  12    0.47   -1.97    2.44    0.29    0.08    0.00    0.00       1.31    1.13    0.29
#  13   -2.78   -1.18    0.14   -0.29    0.85    0.00    0.00      -3.25   -0.78    2.32
#  14    2.53   -1.17    0.33   -0.16   -0.19    0.00    0.00       1.34   -0.40   -0.47
#  15   -0.71   -2.54    0.75    0.10   -0.16    0.00    0.00      -2.57    0.19   -0.31
#  16   -1.57   -2.41    0.52    0.31   -0.29    0.00    0.00      -3.44    0.55   -0.51
#  17   -1.97   -3.03    0.69    0.40   -0.34    0.00    0.00      -4.26    0.59   -0.51
#  18   -0.30   -4.18    1.61    0.04   -0.18    0.00    0.00      -3.01    0.06   -0.27
#  19   -3.19   -3.62    1.97    0.48    0.15    0.00    0.00      -4.21    0.80    0.25
#  20   -0.28   -0.14    0.00   -0.04   -0.02    0.00    0.00      -0.48   -0.55   -0.26
#  21    0.03   -0.16    0.00    0.02   -0.03    0.00    0.00      -0.14    0.32   -0.39
#  22   -0.03   -0.09    0.00    0.01   -0.01    0.00    0.00      -0.13    0.17   -0.34
#  23   -0.08   -0.07    0.00    0.02   -0.01    0.00    0.00      -0.15    0.56   -0.46
#  24    0.06   -0.13    0.00    0.01   -0.02    0.00    0.00      -0.08    0.15   -0.30
#  25   -0.29   -0.08    0.00    0.28    0.03    0.00    0.00      -0.06    6.29    0.62
#  26    0.06   -0.17    0.01   -0.14   -0.01    0.00    0.00      -0.25   -1.69   -0.12
#  27   -0.11   -0.79    0.45    0.22   -0.03    0.00    0.00      -0.26    1.43   -0.18
#  28   -0.15   -0.24    0.03    0.35   -0.02    0.00    0.00      -0.03    3.49   -0.24
#  29    0.36   -0.14    0.01   -0.89   -0.01    0.00    0.00      -0.67  -15.50   -0.16
#  30   -0.55   -0.17    0.01    1.94   -0.03    0.00    0.00       1.20   28.60   -0.41
#  31   -0.42   -0.04    0.00    0.49   -0.01    0.00    0.00       0.03   30.27   -0.43
#  32    0.03   -0.23    0.01   -0.05   -0.01    0.00    0.00      -0.25   -0.42   -0.12
#  33   -0.64   -0.52    0.07    1.42    0.04    0.00    0.00       0.36    8.65    0.27
#  34    0.16   -0.34    0.04   -0.08   -0.03    0.00    0.00      -0.25   -0.72   -0.30
#  35   -0.21   -0.32    0.03    0.45   -0.04    0.00    0.00      -0.10    4.23   -0.41
#  36    2.32   -0.55    0.10   -2.17   -0.03    0.00    0.00      -0.32  -14.02   -0.17
#  37   -4.12   -0.41    0.01    3.46   -0.06    0.00    0.00      -1.12   18.65   -0.33
#  38   -4.33   -1.46    1.35    5.85   -0.13    0.00    0.00       1.28   27.30   -0.59
#  39   -1.43   -0.13    0.02    0.10   -0.02    0.00    0.00      -1.46    0.73   -0.18
#  40   -0.39   -0.07    0.00    0.15   -0.02    0.00    0.00      -0.33    1.95   -0.22
#  41   -1.57   -0.11    0.00    0.14   -0.03    0.00    0.00      -1.57    1.30   -0.28
#  42   -1.43   -0.11    0.01    0.02   -0.02    0.00    0.00      -1.53    0.21   -0.20
#  43   -2.55   -0.15    0.02    0.18   -0.04    0.00    0.00      -2.54    1.28   -0.27
#  44   -4.71   -0.50    0.40    0.56   -0.08    0.00    0.00      -4.33    1.97   -0.28
#  45   -6.96   -0.65    0.38    0.66   -0.13    0.00    0.00      -6.69    1.47   -0.28
#  46   -5.35   -0.95    1.36    0.60   -0.14    0.00    0.00      -4.48    1.20   -0.28
#  47   -1.85   -0.54    0.23    0.34   -0.08    0.00    0.00      -1.90    0.98   -0.22
#  48    0.95   -0.02    0.00    0.34    0.11    0.00    0.00       1.38    1.32    0.43
#  49    1.85   -0.39    0.18   -0.06   -0.08    0.00    0.00       1.51   -0.21   -0.28
#  50    1.19   -0.54    0.55   -0.08   -0.08    0.00    0.00       1.04   -0.26   -0.28
#  51    0.60   -0.49    0.13   -0.10   -0.10    0.00    0.00       0.04   -0.27   -0.28
#  52    0.64   -0.64    0.15   -0.08   -0.16    0.00    0.00      -0.09   -0.14   -0.28
#  53    2.12   -1.21    0.58    0.36   -0.19    0.00    0.00       1.66    0.54   -0.28
#  54   -0.81   -0.04    0.00   -0.03   -0.01    0.00    0.00      -0.89   -0.89   -0.23
#  55   -0.49   -0.04    0.00   -0.04   -0.01    0.00    0.00      -0.58   -0.84   -0.26
#  56    0.00   -0.01    0.00    0.01    0.00    0.00    0.00      -0.01    0.54   -0.18
#  57    0.08   -0.01    0.00   -0.01    0.00    0.00    0.00       0.06   -1.27   -0.28
#  58    0.08   -0.02    0.00   -0.04   -0.01    0.00    0.00       0.02   -1.85   -0.28
#  59    0.13   -0.59    0.83   -0.38   -0.05    0.00    0.00      -0.06   -2.01   -0.28
#  60    0.12   -0.44    0.35   -0.21   -0.05    0.00    0.00      -0.22   -1.19   -0.28
#  61    0.05   -0.11    0.02   -0.20   -0.02    0.00    0.00      -0.27   -2.26   -0.27
#  62    0.04   -0.03    0.00   -0.05   -0.01    0.00    0.00      -0.04   -2.39   -0.28
#  63    0.12   -0.10    0.01   -0.13   -0.02    0.00    0.00      -0.12   -1.53   -0.28
#  64    0.16   -0.03    0.00   -0.08   -0.01    0.00    0.00       0.04   -2.87   -0.28

@<TRIPOS>MOLECULE
       AVX38789_0        77
   64    67     0     0     0



@<TRIPOS>ATOM
      1 C1         -0.0818   -21.1322    -0.3320 C.3        1          -0.0638
      2 N1          0.5064   -22.3441    -0.9179 N.4        1          -0.3785
      3 H1          1.1622   -22.7485    -0.2664 H          1           0.4147
      4 C2          1.2043   -21.9968    -2.1631 C.3        1           0.0364
      5 C3          2.2961   -21.0014    -1.8663 C.ar       1          -0.0825
      6 C4          2.0276   -19.6486    -1.9048 C.ar       1          -0.0991
      7 C5          3.0287   -18.7335    -1.6325 C.ar       1          -0.0860
      8 C6          4.3050   -19.1676    -1.3199 C.ar       1          -0.1021
      9 C7          4.5866   -20.5172    -1.2774 C.ar       1          -0.0800
     10 C8          3.5797   -21.4460    -1.5459 C.ar       1          -0.1215
     11 C9          3.8731   -22.8942    -1.4966 C.2        1           0.5565
     12 O1          3.2595   -23.6633    -2.2105 O.2        1          -0.5387
     13 N2          4.8209   -23.3616    -0.6602 N.am       1          -0.7114
     14 C10         5.1117   -24.7967    -0.6115 C.3        1           0.2006
     15 C11         6.5542   -25.0297    -0.9803 C.2        1          -0.0505
     16 C12         7.4481   -24.0770    -1.3000 C.2        1          -0.1741
     17 C13         8.6688   -24.7358    -1.5737 C.2        1          -0.2174
     18 C14         8.4477   -26.0517    -1.4048 C.2        1          -0.0234
     19 O2          7.1666   -26.2235    -1.0397 O.3        1          -0.1717
     20 C15        -0.5579   -23.3143    -1.2074 C.3        1           0.0709
     21 C16        -0.9400   -24.0338     0.0605 C.ar       1          -0.1011
     22 C17        -2.2681   -24.2263     0.3699 C.ar       1          -0.1665
     23 C18        -2.6278   -24.8874     1.5329 C.ar       1          -0.1057
     24 C19        -1.6559   -25.3633     2.3981 C.ar       1           0.0510
     25 O3         -2.0263   -26.0144     3.5346 O.3        1          -0.2968
     26 C20        -1.0339   -26.1345     4.5588 C.3        1           0.0496
     27 C21        -0.7936   -24.7718     5.2117 C.3        1          -0.0833
     28 C22        -2.0983   -24.2651     5.8294 C.3        1          -0.1798
     29 C23        -2.5744   -25.2442     6.8713 C.2        1           0.4903
     30 O4         -1.8719   -25.4990     7.8347 O.co2      1          -0.6989
     31 O5         -3.6622   -25.7816     6.7510 O.co2      1          -0.7073
     32 C24         0.2561   -26.6273     3.8925 C.3        1           0.0174
     33 O6          0.6522   -25.6347     2.9406 O.3        1          -0.2559
     34 C25        -0.3108   -25.1763     2.1009 C.ar       1           0.1025
     35 C26         0.0542   -24.5118     0.9211 C.ar       1          -0.1170
     36 C27         1.4752   -24.3139     0.5927 C.2        1           0.5228
     37 O7          2.0737   -25.1538    -0.0652 O.co2      1          -0.6965
     38 O8          2.0578   -23.3093     0.9775 O.co2      1          -0.6417
     39 H2         -0.7901   -20.6954    -1.0359 H          1           0.1322
     40 H3         -0.5998   -21.3900     0.5917 H          1           0.1093
     41 H4          0.7079   -20.4123    -0.1172 H          1           0.1215
     42 H5          1.6408   -22.8960    -2.5978 H          1           0.1588
     43 H6          0.4959   -21.5601    -2.8669 H          1           0.1319
     44 H7          1.0337   -19.3033    -2.1485 H          1           0.1428
     45 H8          2.8133   -17.6758    -1.6645 H          1           0.1395
     46 H9          5.0822   -18.4480    -1.1090 H          1           0.1389
     47 H10         5.5830   -20.8546    -1.0333 H          1           0.1339
     48 H11         5.3104   -22.7480    -0.0905 H          1           0.4062
     49 H12         4.9292   -25.1704     0.3960 H          1           0.1096
     50 H13         4.4670   -25.3221    -1.3161 H          1           0.0948
     51 H14         7.2679   -23.0128    -1.3405 H          1           0.1536
     52 H15         9.5999   -24.2715    -1.8632 H          1           0.1532
     53 H16         9.1775   -26.8369    -1.5366 H          1           0.2069
     54 H17        -1.4278   -22.7916    -1.6047 H          1           0.1569
     55 H18        -0.2012   -24.0366    -1.9417 H          1           0.1423
     56 H19        -3.0336   -23.8594    -0.2977 H          1           0.1094
     57 H20        -3.6721   -25.0325     1.7668 H          1           0.1344
     58 H21        -1.3628   -26.8520     5.3104 H          1           0.0817
     59 H22        -0.0370   -24.8702     5.9902 H          1           0.0868
     60 H23        -0.4492   -24.0635     4.4581 H          1           0.0741
     61 H24        -1.9271   -23.2942     6.2944 H          1           0.0629
     62 H25        -2.8547   -24.1665     5.0508 H          1           0.0560
     63 H26         1.0363   -26.7521     4.6434 H          1           0.0767
     64 H27         0.0723   -27.5744     3.3852 H          1           0.1245
@<TRIPOS>BOND
     1    1    2 1
     2    1   39 1
     3    1   40 1
     4    1   41 1
     5    2    3 1
     6    2    4 1
     7    2   20 1
     8    4    5 1
     9    4   42 1
    10    4   43 1
    11    5   10 ar
    12    5    6 ar
    13    6    7 ar
    14    6   44 1
    15    7    8 ar
    16    7   45 1
    17    8    9 ar
    18    8   46 1
    19    9   10 ar
    20    9   47 1
    21   10   11 1
    22   11   12 2
    23   11   13 am
    24   13   14 1
    25   13   48 1
    26   14   15 1
    27   14   49 1
    28   14   50 1
    29   15   19 1
    30   15   16 2
    31   16   17 1
    32   16   51 1
    33   17   18 2
    34   17   52 1
    35   18   19 1
    36   18   53 1
    37   20   21 1
    38   20   54 1
    39   20   55 1
    40   21   35 ar
    41   21   22 ar
    42   22   23 ar
    43   22   56 1
    44   23   24 ar
    45   23   57 1
    46   24   34 ar
    47   24   25 1
    48   25   26 1
    49   26   27 1
    50   26   32 1
    51   26   58 1
    52   27   28 1
    53   27   59 1
    54   27   60 1
    55   28   29 1
    56   28   61 1
    57   28   62 1
    58   29   30 1
    59   29   31 2
    60   32   33 1
    61   32   63 1
    62   32   64 1
    63   33   34 1
    64   34   35 ar
    65   35   36 1
    66   36   37 1
    67   36   38 2
