AVX38753_3, 3
##########                 Name:           AVX38753_0
##########          Protonation:                   61
##########               SMILES:   C[NH+](Cc1ccccc1C(=O)NCc2ccccc2)Cc3ccc4c(c3C(=O)[O-])OC[C@@H](O4)CCC(=O)[O-]
##########            Long Name:   ]methyl]-2-(3-oxido-3-oxo-propyl)-2,3-dihydro-1,4-benzodioxine-5-carboxylate
##########          FlexRecCode: 1
##########               Number:                  511
##########   Ligand Source File: /raid1/people/rgc/Examples/sampl4/screening/ligands/build_1//sampl4-hivint-00000
##########           GlobalRank: 57
##########                 Rank:                    1
##########               Setnum:                    9
##########             Matchnum:                  604
##########                Cloud:                    1
##########        Electrostatic:           -10.605027
##########        Van der Waals:           -22.122118
##########  Ligand Polar Desolv:             6.340817
########## Ligand Apolar Desolv:            -2.703866
##########      Internal Energy:             0.000000
##########      Receptor Energy: 0.0
########## Receptor Desolvation:             0.000000
########## Receptor Hydrophobic:             0.000000
##########         Total Energy: -29.09
##########        Ligand Charge:            -1.000000
##########            Arbitrary:    +999.9990
##########     heavy atom count:   40
##########           pose count:    1
##########        Ligand Energy:             0.000000
# num electro vdwattr vdwrepu polsolv apolsol rdesolv rhydroe totalscore fullpol fullapo
#   1    0.03   -0.01    0.00    0.20    0.00    0.00    0.00       0.22   29.12   -0.41
#   2   -0.07   -0.03    0.00   -0.18    0.00    0.00    0.00      -0.28  -16.31   -0.16
#   3    0.16   -0.03    0.00    0.35    0.00    0.00    0.00       0.48   31.18   -0.43
#   4    0.03   -0.04    0.00    0.08    0.00    0.00    0.00       0.06    3.86   -0.25
#   5    0.00   -0.04    0.00    0.03    0.00    0.00    0.00      -0.01    1.45   -0.18
#   6   -0.01   -0.07    0.00   -0.08   -0.01    0.00    0.00      -0.16   -1.85   -0.12
#   7    0.00   -0.04    0.00   -0.03    0.00    0.00    0.00      -0.07   -0.74   -0.12
#   8   -0.03   -0.05    0.00    0.27    0.01    0.00    0.00       0.19    8.81    0.27
#   9    0.00   -0.15    0.01   -0.04   -0.02    0.00    0.00      -0.20   -0.63   -0.30
#  10    0.11   -0.13    0.00    0.16   -0.02    0.00    0.00       0.12    2.81   -0.30
#  11    0.24   -0.08    0.00   -0.46   -0.01    0.00    0.00      -0.31  -13.12   -0.15
#  12   -0.29   -0.05    0.00    0.74   -0.02    0.00    0.00       0.38   26.18   -0.59
#  13   -0.49   -0.11    0.00    0.93   -0.02    0.00    0.00       0.32   14.55   -0.25
#  14    0.59   -0.25    0.01    0.05   -0.02    0.00    0.00       0.38    0.48   -0.23
#  15   -0.23   -0.15    0.00   -0.01   -0.02    0.00    0.00      -0.42   -0.15   -0.28
#  16    1.95   -0.38    0.01    0.02    0.01    0.00    0.00       1.62    0.13    0.07
#  17   -4.94   -0.01    0.00   -0.32    0.03    0.00    0.00      -5.23   -2.90    0.30
#  18   -0.05   -0.54    0.08    0.03   -0.09    0.00    0.00      -0.57    0.14   -0.37
#  19    0.30   -1.62    0.39    0.24   -0.14    0.00    0.00      -0.83    0.61   -0.35
#  20    0.53   -1.72    0.37    0.30   -0.13    0.00    0.00      -0.65    0.80   -0.34
#  21   -0.05   -0.58    0.16    0.02   -0.06    0.00    0.00      -0.52    0.08   -0.28
#  22    0.47   -0.98    0.38   -0.04   -0.07    0.00    0.00      -0.23   -0.20   -0.31
#  23    1.55   -0.99    0.12   -0.21   -0.13    0.00    0.00       0.35   -0.64   -0.39
#  24    1.98   -1.20    0.16   -0.17   -0.16    0.00    0.00       0.60   -0.50   -0.47
#  25    1.77   -1.02    0.08   -0.08   -0.16    0.00    0.00       0.59   -0.24   -0.47
#  26    0.54   -0.89    0.06    0.06   -0.14    0.00    0.00      -0.37    0.18   -0.44
#  27    0.16   -0.86    0.21    0.12   -0.09    0.00    0.00      -0.46    0.53   -0.40
#  28    3.43   -0.79    0.10   -1.28   -0.16    0.00    0.00       1.29   -5.09   -0.63
#  29   -5.54   -1.33    0.42    2.17    0.07    0.00    0.00      -4.22    7.23    0.22
#  30   -6.33   -0.83    0.11    2.05    0.60    0.00    0.00      -4.40    7.87    2.32
#  31    1.92   -0.81    0.26   -0.95   -0.13    0.00    0.00       0.29   -3.20   -0.44
#  32   -0.87   -1.06    0.26    0.43   -0.10    0.00    0.00      -1.33    1.69   -0.37
#  33   -0.55   -1.23    0.24    0.41   -0.13    0.00    0.00      -1.27    1.42   -0.46
#  34   -0.25   -1.20    0.49    0.26   -0.10    0.00    0.00      -0.81    1.16   -0.47
#  35   -0.18   -1.10    0.57    0.15   -0.08    0.00    0.00      -0.64    0.93   -0.47
#  36   -0.21   -0.90    0.33    0.19   -0.07    0.00    0.00      -0.66    1.25   -0.47
#  37   -0.25   -1.02    0.49    0.29   -0.08    0.00    0.00      -0.57    1.69   -0.46
#  38    1.39   -0.76    0.22    0.04   -0.07    0.00    0.00       0.82    0.22   -0.39
#  39    1.13   -0.98    0.34    0.31   -0.09    0.00    0.00       0.70    1.50   -0.46
#  40   -0.08   -0.39    0.08    0.02   -0.04    0.00    0.00      -0.41    0.14   -0.30
#  41    0.08   -0.30    0.06    0.87    0.07    0.00    0.00       0.78    7.57    0.62
#  42    0.00   -0.01    0.00   -0.02    0.00    0.00    0.00      -0.04   -2.27   -0.27
#  43   -0.02   -0.02    0.00   -0.04    0.00    0.00    0.00      -0.08   -2.44   -0.28
#  44    0.01   -0.01    0.00   -0.02    0.00    0.00    0.00      -0.02   -2.14   -0.28
#  45    0.00   -0.02    0.00   -0.02    0.00    0.00    0.00      -0.04   -1.30   -0.28
#  46   -0.01   -0.01    0.00   -0.02    0.00    0.00    0.00      -0.05   -1.79   -0.28
#  47    0.00   -0.02    0.00   -0.08   -0.01    0.00    0.00      -0.11   -2.94   -0.28
#  48    0.01    0.00    0.00   -0.01    0.00    0.00    0.00      -0.01   -1.51   -0.28
#  49   -0.41   -0.04    0.00    0.04   -0.01    0.00    0.00      -0.41    1.14   -0.27
#  50   -0.16   -0.03    0.00   -0.02   -0.01    0.00    0.00      -0.22   -0.64   -0.15
#  51    0.07   -0.20    0.04    0.17   -0.04    0.00    0.00       0.04    0.93   -0.20
#  52   -0.17   -0.13    0.02    0.27   -0.03    0.00    0.00      -0.04    2.23   -0.28
#  53    0.01   -0.50    0.16   -0.23   -0.09    0.00    0.00      -0.65   -0.56   -0.22
#  54   -0.49   -0.21    0.03   -0.03   -0.06    0.00    0.00      -0.76   -0.15   -0.27
#  55   -0.12   -0.72    0.46   -0.21   -0.11    0.00    0.00      -0.70   -0.51   -0.28
#  56    0.19   -0.11    0.01    0.00   -0.02    0.00    0.00       0.08    0.02   -0.14
#  57   -0.13   -0.43    0.39    0.57   -0.07    0.00    0.00       0.33    2.31   -0.27
#  58   -2.59   -0.23    0.03    0.62   -0.07    0.00    0.00      -2.24    2.52   -0.28
#  59   -4.29   -0.42    0.10    0.52   -0.10    0.00    0.00      -4.19    1.51   -0.28
#  60   -3.20   -0.26    0.03    0.14   -0.07    0.00    0.00      -3.36    0.58   -0.28
#  61   -0.47   -0.23    0.02   -0.06   -0.05    0.00    0.00      -0.79   -0.26   -0.22
#  62    3.63   -0.02    0.00   -0.53    0.07    0.00    0.00       3.14   -3.35    0.43
#  63    1.05   -0.25    0.12   -0.03   -0.05    0.00    0.00       0.84   -0.17   -0.28
#  64    1.38   -0.54    0.54   -0.23   -0.10    0.00    0.00       1.05   -0.68   -0.28
#  65    0.69   -0.36    0.09   -0.42   -0.08    0.00    0.00      -0.07   -1.46   -0.28
#  66    0.23   -0.16    0.02   -0.16   -0.04    0.00    0.00      -0.10   -1.10   -0.28
#  67    0.16   -0.11    0.02   -0.08   -0.02    0.00    0.00      -0.04   -0.90   -0.28
#  68    0.16   -0.08    0.01   -0.10   -0.02    0.00    0.00      -0.03   -1.20   -0.28
#  69    0.34   -0.11    0.02   -0.15   -0.03    0.00    0.00       0.08   -1.57   -0.28
#  70   -2.53   -0.30    0.22    0.01   -0.05    0.00    0.00      -2.65    0.07   -0.28
#  71   -1.87   -0.42    0.23   -0.45   -0.07    0.00    0.00      -2.59   -1.78   -0.28

@<TRIPOS>MOLECULE
       AVX38753_0        61
   71    74     0     0     0



@<TRIPOS>ATOM
      1 O1         -9.4301   -21.3621    -4.6268 O.co2      1          -0.7002
      2 C1         -8.4231   -20.7982    -5.0197 C.2        1           0.4906
      3 O2         -8.4303   -19.5923    -5.1994 O.co2      1          -0.7067
      4 C2         -7.1675   -21.5909    -5.2771 C.3        1          -0.1800
      5 C3         -6.7251   -22.2796    -3.9846 C.3        1          -0.0816
      6 C4         -6.4505   -21.2236    -2.9122 C.3        1           0.0501
      7 C5         -6.4469   -21.8782    -1.5257 C.3        1           0.0207
      8 O3         -5.4503   -22.9052    -1.5401 O.3        1          -0.2605
      9 C6         -4.2339   -22.5682    -2.0395 C.ar       1           0.0914
     10 C7         -3.1184   -23.3680    -1.7524 C.ar       1          -0.0919
     11 C8         -3.2643   -24.5671    -0.9118 C.2        1           0.5282
     12 O4         -3.1301   -24.4838     0.3013 O.co2      1          -0.6373
     13 O5         -3.5197   -25.6473    -1.4263 O.co2      1          -0.7100
     14 C9         -1.8657   -23.0190    -2.2693 C.ar       1          -0.1134
     15 C10        -0.6610   -23.8725    -1.9667 C.3        1           0.0606
     16 N1          0.1106   -24.0846    -3.1986 N.4        1          -0.3537
     17 H1          0.1316   -23.2295    -3.7338 H          1           0.4370
     18 C11        -0.5203   -25.1456    -3.9949 C.3        1           0.0285
     19 C12        -0.0612   -25.0395    -5.4264 C.2        1          -0.1682
     20 C13        -0.7332   -24.3038    -6.2769 C.2        1          -0.1476
     21 C14         1.4828   -24.4807    -2.8546 C.3        1           0.0229
     22 C15         2.2818   -23.2569    -2.4870 C.ar       1          -0.0831
     23 C16         2.1948   -22.1168    -3.2592 C.ar       1          -0.1055
     24 C17         2.9276   -20.9926    -2.9231 C.ar       1          -0.0938
     25 C18         3.7519   -21.0031    -1.8118 C.ar       1          -0.1038
     26 C19         3.8475   -22.1363    -1.0310 C.ar       1          -0.0826
     27 C20         3.1068   -23.2723    -1.3615 C.ar       1          -0.1084
     28 C21         3.2001   -24.4886    -0.5261 C.2        1           0.5399
     29 O6          3.5907   -25.5317    -1.0126 O.2        1          -0.5105
     30 N2          2.8519   -24.4405     0.7751 N.am       1          -0.7077
     31 C22         2.9442   -25.6457     1.6030 C.3        1           0.1590
     32 C23         1.8961   -25.5937     2.6846 C.ar       1          -0.1100
     33 C24         2.1293   -26.2040     3.9028 C.ar       1          -0.0986
     34 C25         1.1679   -26.1563     4.8949 C.ar       1          -0.1218
     35 C26        -0.0264   -25.4979     4.6691 C.ar       1          -0.1110
     36 C27        -0.2591   -24.8869     3.4512 C.ar       1          -0.1222
     37 C28         0.7039   -24.9309     2.4605 C.ar       1          -0.0964
     38 C29        -1.7347   -21.8958    -3.0550 C.ar       1          -0.1142
     39 C30        -2.8370   -21.1056    -3.3371 C.ar       1          -0.1213
     40 C31        -4.0842   -21.4367    -2.8330 C.ar       1           0.0630
     41 O7         -5.1566   -20.6477    -3.1173 O.3        1          -0.2989
     42 H2         -7.3631   -22.3433    -6.0412 H          1           0.0632
     43 H3         -6.3789   -20.9212    -5.6203 H          1           0.0559
     44 H4         -7.5137   -22.9494    -3.6415 H          1           0.0845
     45 H5         -5.8169   -22.8531    -4.1709 H          1           0.0720
     46 H6         -7.2129   -20.4458    -2.9550 H          1           0.0797
     47 H7         -6.2023   -21.1357    -0.7662 H          1           0.1191
     48 H8         -7.4246   -22.3140    -1.3195 H          1           0.0701
     49 H9         -0.0361   -23.3700    -1.2283 H          1           0.1025
     50 H10        -0.9873   -24.8347    -1.5721 H          1           0.1588
     51 H11        -0.2366   -26.1185    -3.5935 H          1           0.1118
     52 H12        -1.6038   -25.0366    -3.9519 H          1           0.1198
     53 H13         0.8217   -25.5700    -5.7511 H          1           0.1407
     54 H14        -1.6161   -23.7732    -5.9523 H          1           0.0937
     55 H15        -0.4042   -24.2277    -7.3028 H          1           0.1120
     56 H16         1.4614   -25.1681    -2.0090 H          1           0.1637
     57 H17         1.9445   -24.9724    -3.7108 H          1           0.1186
     58 H18         1.5536   -22.1021    -4.1281 H          1           0.1375
     59 H19         2.8562   -20.1028    -3.5312 H          1           0.1359
     60 H20         4.3218   -20.1223    -1.5552 H          1           0.1364
     61 H21         4.4913   -22.1432    -0.1639 H          1           0.1335
     62 H22         2.5401   -23.6082     1.1634 H          1           0.3989
     63 H23         2.7818   -26.5265     0.9817 H          1           0.0904
     64 H24         3.9333   -25.6991     2.0578 H          1           0.0806
     65 H25         3.0624   -26.7183     4.0793 H          1           0.1237
     66 H26         1.3498   -26.6337     5.8466 H          1           0.1242
     67 H27        -0.7778   -25.4612     5.4441 H          1           0.1226
     68 H28        -1.1924   -24.3728     3.2746 H          1           0.1239
     69 H29         0.5236   -24.4502     1.5102 H          1           0.1259
     70 H30        -0.7668   -21.6291    -3.4533 H          1           0.1204
     71 H31        -2.7234   -20.2265    -3.9541 H          1           0.1290
@<TRIPOS>BOND
     1    1    2 1
     2    2    3 2
     3    2    4 1
     4    4    5 1
     5    4   42 1
     6    4   43 1
     7    5    6 1
     8    5   44 1
     9    5   45 1
    10    6   41 1
    11    6    7 1
    12    6   46 1
    13    7    8 1
    14    7   47 1
    15    7   48 1
    16    8    9 1
    17    9   40 ar
    18    9   10 ar
    19   10   11 1
    20   10   14 ar
    21   11   12 1
    22   11   13 2
    23   14   15 1
    24   14   38 ar
    25   15   16 1
    26   15   49 1
    27   15   50 1
    28   16   17 1
    29   16   18 1
    30   16   21 1
    31   18   19 1
    32   18   51 1
    33   18   52 1
    34   19   20 2
    35   19   53 1
    36   20   54 1
    37   20   55 1
    38   21   22 1
    39   21   56 1
    40   21   57 1
    41   22   27 ar
    42   22   23 ar
    43   23   24 ar
    44   23   58 1
    45   24   25 ar
    46   24   59 1
    47   25   26 ar
    48   25   60 1
    49   26   27 ar
    50   26   61 1
    51   27   28 1
    52   28   29 2
    53   28   30 am
    54   30   31 1
    55   30   62 1
    56   31   32 1
    57   31   63 1
    58   31   64 1
    59   32   37 ar
    60   32   33 ar
    61   33   34 ar
    62   33   65 1
    63   34   35 ar
    64   34   66 1
    65   35   36 ar
    66   35   67 1
    67   36   37 ar
    68   36   68 1
    69   37   69 1
    70   38   39 ar
    71   38   70 1
    72   39   40 ar
    73   39   71 1
    74   40   41 1
