AVX38742_3, 3
##########                 Name:           AVX38742_0
##########          Protonation:                  100
##########               SMILES:   c1ccc\2c(c1)C/C(=N\O)/C2=C\c3ccc4c(c3C(=O)[O-])OC[C@H](O4)CCC(=O)[O-]
##########            Long Name:   ]methyl]-2-(3-oxido-3-oxo-propyl)-2,3-dihydro-1,4-benzodioxine-5-carboxylate
##########          FlexRecCode: 1
##########               Number:                   80
##########   Ligand Source File: /raid1/people/rgc/Examples/sampl4/screening/ligands/build_1//sampl4-hivint-00000
##########           GlobalRank: 131
##########                 Rank:                    1
##########               Setnum:                   23
##########             Matchnum:                18909
##########                Cloud:                    1
##########        Electrostatic:            -7.397161
##########        Van der Waals:           -21.802036
##########  Ligand Polar Desolv:            15.432870
########## Ligand Apolar Desolv:            -3.609083
##########      Internal Energy:             0.000000
##########      Receptor Energy: 0.0
########## Receptor Desolvation:             0.000000
########## Receptor Hydrophobic:             0.000000
##########         Total Energy: -17.38
##########        Ligand Charge:            -2.000000
##########            Arbitrary:    +999.9990
##########     heavy atom count:   30
##########           pose count:    1
##########        Ligand Energy:             0.000000
# num electro vdwattr vdwrepu polsolv apolsol rdesolv rhydroe totalscore fullpol fullapo
#   1   11.34   -1.46    0.36    3.07    0.25    0.00    0.00      13.55    7.65    0.62
#   2    4.74   -1.00    0.07    2.89    0.25    0.00    0.00       6.95    8.49    0.72
#   3   -1.48   -1.48    0.25   -1.22   -0.30    0.00    0.00      -4.22   -2.99   -0.73
#   4    0.52   -2.00    1.35    0.41   -0.14    0.00    0.00       0.15    0.80   -0.27
#   5    0.08   -3.02    1.19    0.88   -0.24    0.00    0.00      -1.11    1.61   -0.44
#   6    0.03   -3.51    1.49    0.77   -0.31    0.00    0.00      -1.54    1.16   -0.47
#   7   -0.39   -3.41    1.07    0.50   -0.32    0.00    0.00      -2.55    0.73   -0.47
#   8   -1.09   -3.07    1.46    1.15   -0.32    0.00    0.00      -1.87    1.70   -0.47
#   9   -1.14   -2.46    0.74    1.63   -0.28    0.00    0.00      -1.51    2.75   -0.47
#  10   -0.07   -2.26    0.55    1.44   -0.21    0.00    0.00      -0.55    2.92   -0.43
#  11   -0.09   -1.47    0.20    0.57   -0.16    0.00    0.00      -0.95    1.44   -0.41
#  12    0.41   -1.19    0.11    0.78   -0.14    0.00    0.00      -0.03    2.07   -0.38
#  13   -0.13   -1.18    0.34    0.26   -0.11    0.00    0.00      -0.81    0.89   -0.36
#  14    0.36   -2.25    1.15    0.30   -0.11    0.00    0.00      -0.54    0.87   -0.31
#  15    0.81   -2.38    2.08    0.61   -0.14    0.00    0.00       0.99    2.07   -0.46
#  16   -0.10   -1.49    1.55   -0.16   -0.06    0.00    0.00      -0.26   -0.76   -0.30
#  17    0.95   -0.57    0.09    1.83    0.12    0.00    0.00       2.42    9.53    0.62
#  18    0.01   -0.24    0.02   -0.27   -0.02    0.00    0.00      -0.49   -2.15   -0.12
#  19   -0.08   -0.58    0.23    0.24   -0.03    0.00    0.00      -0.21    1.65   -0.18
#  20   -0.14   -0.14    0.01    0.39   -0.02    0.00    0.00       0.10    4.73   -0.24
#  21    0.20   -0.08    0.00   -0.52    0.00    0.00    0.00      -0.40  -18.62   -0.16
#  22   -0.20   -0.07    0.00    0.88   -0.01    0.00    0.00       0.59   32.61   -0.41
#  23   -0.23   -0.03    0.00    0.58   -0.01    0.00    0.00       0.31   34.76   -0.43
#  24   -0.01   -0.13    0.00   -0.04   -0.01    0.00    0.00      -0.18   -0.43   -0.12
#  25   -0.11   -0.26    0.02    1.35    0.03    0.00    0.00       1.03   12.39    0.27
#  26    0.06   -0.91    0.55   -0.25   -0.05    0.00    0.00      -0.59   -1.57   -0.30
#  27   -0.39   -0.81    0.26    1.67   -0.08    0.00    0.00       0.64    8.41   -0.41
#  28    3.10   -0.51    0.03   -4.25   -0.03    0.00    0.00      -1.67  -22.54   -0.17
#  29   -2.73   -0.26    0.00    4.36   -0.04    0.00    0.00       1.33   32.93   -0.33
#  30   -6.89   -0.81    0.09    9.61   -0.16    0.00    0.00       1.84   36.47   -0.59
#  31  -13.30   -0.03    0.00   -1.90    0.34    0.00    0.00     -14.89   -7.00    1.25
#  32   -0.53   -1.58    5.57   -0.99   -0.14    0.00    0.00       2.34   -1.97   -0.28
#  33   -1.37   -0.63    0.35   -1.09   -0.14    0.00    0.00      -2.88   -2.24   -0.28
#  34   -0.36   -0.85    0.81   -1.20   -0.18    0.00    0.00      -1.78   -1.85   -0.28
#  35   -0.31   -0.95    0.79   -1.14   -0.19    0.00    0.00      -1.81   -1.64   -0.28
#  36    1.23   -0.57    0.10   -1.35   -0.17    0.00    0.00      -0.76   -2.20   -0.28
#  37    1.92   -0.43    0.05   -0.97   -0.12    0.00    0.00       0.45   -2.21   -0.28
#  38    2.04   -0.26    0.02   -1.05   -0.06    0.00    0.00       0.70   -3.94   -0.22
#  39   -1.86   -0.81    0.64   -1.73   -0.09    0.00    0.00      -3.85   -4.36   -0.22
#  40   -2.17   -0.55    0.29   -1.31   -0.08    0.00    0.00      -3.82   -4.61   -0.28
#  41    0.01   -0.04    0.00   -0.12   -0.01    0.00    0.00      -0.17   -2.62   -0.28
#  42    0.13   -0.54    0.82   -0.54   -0.05    0.00    0.00      -0.17   -3.06   -0.28
#  43    0.05   -0.21    0.06   -0.22   -0.04    0.00    0.00      -0.36   -1.71   -0.28
#  44    0.05   -0.02    0.00   -0.05    0.00    0.00    0.00      -0.02   -2.67   -0.27
#  45    0.05   -0.05    0.00   -0.15   -0.01    0.00    0.00      -0.16   -3.14   -0.28
#  46    0.01   -0.02    0.00   -0.05   -0.01    0.00    0.00      -0.06   -2.43   -0.28
#  47   -0.34   -0.03    0.00   -0.18   -0.01    0.00    0.00      -0.56   -4.60   -0.28

@<TRIPOS>MOLECULE
       AVX38742_0       100
   47    50     0     0     0



@<TRIPOS>ATOM
      1 O1          3.5402   -20.2424    -2.9577 O.3        1          -0.4265
      2 N1          3.7904   -21.1873    -1.9332 N.2        1          -0.3010
      3 C1          4.9362   -21.7904    -1.8735 C.2        1           0.1695
      4 C2          6.1103   -21.6012    -2.8049 C.3        1          -0.0648
      5 C3          7.1998   -22.5246    -2.3177 C.ar       1          -0.1033
      6 C4          8.4758   -22.7554    -2.7942 C.ar       1          -0.1031
      7 C5          9.3001   -23.6685    -2.1624 C.ar       1          -0.1341
      8 C6          8.8509   -24.3568    -1.0493 C.ar       1          -0.1166
      9 C7          7.5799   -24.1354    -0.5644 C.ar       1          -0.1029
     10 C8          6.7400   -23.2128    -1.1977 C.ar       1          -0.0153
     11 C9          5.3566   -22.7919    -0.8809 C.2        1          -0.1415
     12 C10         4.6000   -23.2558     0.1519 C.2        1           0.0782
     13 C11         3.3021   -22.6415     0.4428 C.ar       1          -0.0758
     14 C12         3.2225   -21.2843     0.7627 C.ar       1          -0.0598
     15 C13         2.0002   -20.7064     1.0354 C.ar       1          -0.1318
     16 C14         0.8349   -21.4613     0.9958 C.ar       1           0.0528
     17 O2         -0.3584   -20.8645     1.2653 O.3        1          -0.3017
     18 C15        -1.4502   -21.7292     1.5934 C.3        1           0.0498
     19 C16        -1.2374   -22.3295     2.9847 C.3        1          -0.0810
     20 C17        -2.4091   -23.2519     3.3267 C.3        1          -0.1796
     21 C18        -3.6920   -22.4611     3.3116 C.2        1           0.4919
     22 O3         -3.8330   -21.5136     4.0659 O.co2      1          -0.7015
     23 O4         -4.5887   -22.7687     2.5450 O.co2      1          -0.7110
     24 C19        -1.4827   -22.8464     0.5438 C.3        1           0.0193
     25 O5         -0.2467   -23.5609     0.6426 O.3        1          -0.2611
     26 C20         0.8877   -22.8162     0.6806 C.ar       1           0.0684
     27 C21         2.1196   -23.4183     0.3957 C.ar       1          -0.1047
     28 C22         2.1847   -24.8449     0.0558 C.2        1           0.5243
     29 O6          1.1592   -25.5120     0.0165 O.co2      1          -0.6898
     30 O7          3.2643   -25.3673    -0.1883 O.co2      1          -0.6593
     31 H1          2.6591   -19.8457    -2.9204 H          1           0.4023
     32 H2          5.8253   -21.8648    -3.8235 H          1           0.0923
     33 H3          6.4532   -20.5672    -2.7685 H          1           0.0932
     34 H4          8.8307   -22.2211    -3.6631 H          1           0.1163
     35 H5         10.2968   -23.8450    -2.5390 H          1           0.1184
     36 H6          9.4977   -25.0696    -0.5593 H          1           0.1214
     37 H7          7.2321   -24.6744     0.3044 H          1           0.1284
     38 H8          4.9567   -24.0764     0.7567 H          1           0.1626
     39 H9          4.1207   -20.6856     0.7971 H          1           0.1201
     40 H10         1.9487   -19.6564     1.2826 H          1           0.1241
     41 H11        -2.3854   -21.1695     1.5712 H          1           0.0761
     42 H12        -0.3096   -22.9012     2.9956 H          1           0.0817
     43 H13        -1.1789   -21.5279     3.7212 H          1           0.0716
     44 H14        -2.4677   -24.0532     2.5903 H          1           0.0645
     45 H15        -2.2577   -23.6795     4.3178 H          1           0.0550
     46 H16        -2.3164   -23.5191     0.7446 H          1           0.0691
     47 H17        -1.5828   -22.4156    -0.4525 H          1           0.1151
@<TRIPOS>BOND
     1    1    2 1
     2    1   31 1
     3    2    3 2
     4    3   11 1
     5    3    4 1
     6    4    5 1
     7    4   32 1
     8    4   33 1
     9    5   10 ar
    10    5    6 ar
    11    6    7 ar
    12    6   34 1
    13    7    8 ar
    14    7   35 1
    15    8    9 ar
    16    8   36 1
    17    9   10 ar
    18    9   37 1
    19   10   11 1
    20   11   12 2
    21   12   13 1
    22   12   38 1
    23   13   27 ar
    24   13   14 ar
    25   14   15 ar
    26   14   39 1
    27   15   16 ar
    28   15   40 1
    29   16   26 ar
    30   16   17 1
    31   17   18 1
    32   18   19 1
    33   18   24 1
    34   18   41 1
    35   19   20 1
    36   19   42 1
    37   19   43 1
    38   20   21 1
    39   20   44 1
    40   20   45 1
    41   21   22 1
    42   21   23 2
    43   24   25 1
    44   24   46 1
    45   24   47 1
    46   25   26 1
    47   26   27 ar
    48   27   28 1
    49   28   29 1
    50   28   30 2
