AVX38788_1, 3
##########                 Name:           AVX38788_0
##########          Protonation:                   77
##########               SMILES:   C[NH+](Cc1ccccc1C(=O)NCC2CCC2)Cc3ccc4c(c3C(=O)[O-])OC[C@H](O4)CCC(=O)[O-]
##########            Long Name:   ]methyl]-2-(3-oxido-3-oxo-propyl)-2,3-dihydro-1,4-benzodioxine-5-carboxylate
##########          FlexRecCode: 1
##########               Number:                  228
##########   Ligand Source File: /raid1/people/rgc/Examples/sampl4/screening/ligands/build_1//sampl4-hivint-00000
##########           GlobalRank: 51
##########                 Rank:                    1
##########               Setnum:                   38
##########             Matchnum:                 3440
##########                Cloud:                    1
##########        Electrostatic:           -15.820794
##########        Van der Waals:           -19.352568
##########  Ligand Polar Desolv:             7.983745
########## Ligand Apolar Desolv:            -2.986085
##########      Internal Energy:             0.000000
##########      Receptor Energy: 0.0
########## Receptor Desolvation:             0.000000
########## Receptor Hydrophobic:             0.000000
##########         Total Energy: -30.18
##########        Ligand Charge:            -1.000000
##########            Arbitrary:    +999.9990
##########     heavy atom count:   36
##########           pose count:    1
##########        Ligand Energy:             0.000000
# num electro vdwattr vdwrepu polsolv apolsol rdesolv rhydroe totalscore fullpol fullapo
#   1    1.55   -0.99    0.22   -0.20   -0.15    0.00    0.00       0.44   -0.55   -0.41
#   2    6.76   -0.58    0.03   -0.33    0.04    0.00    0.00       5.92   -1.29    0.16
#   3   -4.08   -0.01    0.00    0.15    0.03    0.00    0.00      -3.91    1.76    0.32
#   4   -0.76   -0.51    0.03    0.04   -0.08    0.00    0.00      -1.28    0.16   -0.30
#   5    1.06   -0.79    0.04   -0.14   -0.09    0.00    0.00       0.08   -0.48   -0.30
#   6    1.60   -1.38    0.19   -0.30   -0.16    0.00    0.00      -0.05   -0.76   -0.40
#   7    0.71   -2.32    0.84   -0.31   -0.21    0.00    0.00      -1.29   -0.69   -0.47
#   8   -0.22   -1.57    0.22   -0.32   -0.19    0.00    0.00      -2.07   -0.77   -0.47
#   9   -0.32   -1.31    0.45   -0.17   -0.14    0.00    0.00      -1.48   -0.51   -0.44
#  10    0.36   -0.85    0.16   -0.15   -0.10    0.00    0.00      -0.57   -0.60   -0.40
#  11   -1.04   -0.56    0.07    0.09   -0.11    0.00    0.00      -1.55    0.51   -0.63
#  12    3.60   -0.40    0.02    0.29    0.05    0.00    0.00       3.55    1.75    0.29
#  13   -2.05   -0.43    0.02   -0.20    0.37    0.00    0.00      -2.28   -1.26    2.31
#  14    0.19   -0.18    0.00   -0.02   -0.04    0.00    0.00      -0.05   -0.18   -0.42
#  15   -0.26   -0.39    0.02   -0.01   -0.05    0.00    0.00      -0.69   -0.03   -0.24
#  16   -0.16   -0.56    0.12    0.00   -0.07    0.00    0.00      -0.68   -0.01   -0.33
#  17    0.08   -0.94    0.18    0.07   -0.11    0.00    0.00      -0.72    0.21   -0.34
#  18   -0.43   -0.50    0.02    0.11   -0.10    0.00    0.00      -0.89    0.37   -0.33
#  19   -1.41   -0.91    0.26   -0.18   -0.08    0.00    0.00      -2.32   -0.62   -0.26
#  20    1.28   -0.94    0.35    0.08   -0.09    0.00    0.00       0.68    0.36   -0.39
#  21    2.60   -1.69    1.06    0.06   -0.09    0.00    0.00       1.95    0.24   -0.34
#  22    0.91   -0.74    0.18    0.11   -0.08    0.00    0.00       0.37    0.60   -0.46
#  23   -0.16   -0.24    0.01    0.01   -0.03    0.00    0.00      -0.40    0.13   -0.30
#  24    0.17   -0.12    0.00    0.40    0.04    0.00    0.00       0.49    6.35    0.62
#  25    0.02   -0.05    0.00   -0.06    0.00    0.00    0.00      -0.10   -1.69   -0.12
#  26   -0.02   -0.03    0.00    0.03    0.00    0.00    0.00      -0.02    1.43   -0.18
#  27   -0.03   -0.02    0.00    0.05    0.00    0.00    0.00      -0.01    3.51   -0.24
#  28    0.16   -0.02    0.00   -0.20    0.00    0.00    0.00      -0.07  -15.53   -0.16
#  29   -0.26   -0.01    0.00    0.29    0.00    0.00    0.00       0.02   28.63   -0.41
#  30   -0.26   -0.03    0.00    0.58   -0.01    0.00    0.00       0.28   30.30   -0.43
#  31    0.01   -0.06    0.00   -0.02    0.00    0.00    0.00      -0.07   -0.41   -0.12
#  32    0.12   -0.08    0.00    0.34    0.01    0.00    0.00       0.39    8.71    0.27
#  33   -0.28   -0.18    0.01   -0.06   -0.02    0.00    0.00      -0.54   -0.77   -0.30
#  34    0.66   -0.33    0.03    0.56   -0.05    0.00    0.00       0.87    4.32   -0.41
#  35   -1.51   -0.38    0.04   -1.88   -0.02    0.00    0.00      -3.75  -14.21   -0.17
#  36    0.78   -0.49    0.08    2.65   -0.04    0.00    0.00       2.98   18.97   -0.32
#  37    0.47   -0.47    0.07    4.14   -0.09    0.00    0.00       4.11   27.46   -0.59
#  38   -4.29   -0.32    0.05    0.38   -0.09    0.00    0.00      -4.27    1.22   -0.28
#  39   -2.92   -0.34    0.09    0.18   -0.05    0.00    0.00      -3.04    0.67   -0.18
#  40   -2.31   -0.42    0.15    0.50   -0.06    0.00    0.00      -2.14    1.87   -0.22
#  41   -2.86   -0.12    0.00    0.01   -0.02    0.00    0.00      -2.99    0.10   -0.20
#  42   -4.03   -0.27    0.05    0.27   -0.06    0.00    0.00      -4.05    1.15   -0.27
#  43   -3.68   -0.31    0.04    0.50   -0.07    0.00    0.00      -3.52    1.87   -0.28
#  44   -1.48   -1.33    2.14    0.61   -0.12    0.00    0.00      -0.19    1.46   -0.28
#  45    1.03   -0.34    0.04    0.40   -0.08    0.00    0.00       1.05    1.32   -0.28
#  46    1.34   -0.27    0.07    0.29   -0.05    0.00    0.00       1.38    1.25   -0.22
#  47    2.67   -0.01    0.00    0.21    0.04    0.00    0.00       2.91    2.16    0.43
#  48    0.18   -0.03    0.00   -0.01   -0.01    0.00    0.00       0.13   -0.15   -0.28
#  49   -0.04   -0.04    0.00   -0.01   -0.01    0.00    0.00      -0.10   -0.17   -0.27
#  50    0.15   -0.18    0.01    0.05   -0.05    0.00    0.00      -0.02    0.27   -0.28
#  51    0.08   -0.07    0.00   -0.01   -0.02    0.00    0.00       0.00   -0.09   -0.27
#  52    0.10   -0.40    0.33    0.03   -0.06    0.00    0.00      -0.01    0.15   -0.28
#  53   -0.24   -0.25    0.04   -0.04   -0.07    0.00    0.00      -0.56   -0.14   -0.28
#  54   -0.09   -0.76    0.48   -0.02   -0.11    0.00    0.00      -0.50   -0.05   -0.28
#  55    0.47   -0.24    0.02   -0.04   -0.07    0.00    0.00       0.14   -0.18   -0.28
#  56    0.32   -0.09    0.00   -0.02   -0.02    0.00    0.00       0.20   -0.28   -0.28
#  57   -2.52   -0.36    0.18   -0.25   -0.06    0.00    0.00      -3.00   -0.98   -0.23
#  58   -4.28   -0.64    0.49   -0.32   -0.09    0.00    0.00      -4.84   -0.91   -0.26
#  59   -2.49   -0.70    0.49    0.14   -0.07    0.00    0.00      -2.62    0.38   -0.18
#  60   -0.97   -0.15    0.03   -0.19   -0.04    0.00    0.00      -1.32   -1.34   -0.28
#  61    0.04   -0.02    0.00   -0.04   -0.01    0.00    0.00      -0.02   -1.87   -0.28
#  62    0.03    0.00    0.00   -0.02    0.00    0.00    0.00       0.00   -2.03   -0.28
#  63    0.01   -0.01    0.00   -0.02   -0.01    0.00    0.00      -0.04   -1.19   -0.28
#  64    0.01    0.00    0.00   -0.01    0.00    0.00    0.00      -0.01   -2.25   -0.27
#  65    0.01   -0.01    0.00   -0.02    0.00    0.00    0.00      -0.03   -2.40   -0.28
#  66    0.05   -0.01    0.00   -0.02    0.00    0.00    0.00       0.01   -1.54   -0.28
#  67    0.06   -0.03    0.00   -0.09   -0.01    0.00    0.00      -0.07   -2.91   -0.28

@<TRIPOS>MOLECULE
       AVX38788_0        77
   67    70     0     0     0



@<TRIPOS>ATOM
      1 C1          2.1315   -19.5041    -0.0726 C.3        1          -0.0636
      2 N1          1.2875   -20.4123    -0.8605 N.4        1          -0.3783
      3 H1          1.0314   -21.2083    -0.2958 H          1           0.4150
      4 C2          2.0304   -20.8691    -2.0427 C.3        1           0.0369
      5 C3          3.2760   -21.5949    -1.6037 C.ar       1          -0.0839
      6 C4          4.4516   -20.8981    -1.4139 C.ar       1          -0.0992
      7 C5          5.5959   -21.5629    -1.0110 C.ar       1          -0.0876
      8 C6          5.5699   -22.9296    -0.7956 C.ar       1          -0.1024
      9 C7          4.4010   -23.6380    -0.9814 C.ar       1          -0.0814
     10 C8          3.2415   -22.9724    -1.3828 C.ar       1          -0.1210
     11 C9          1.9837   -23.7245    -1.5783 C.2        1           0.5512
     12 O1          1.1707   -23.3463    -2.3991 O.2        1          -0.5419
     13 N2          1.7384   -24.8294    -0.8464 N.am       1          -0.7103
     14 C10         0.4920   -25.5745    -1.0402 C.3        1           0.1232
     15 C11         0.6988   -26.6434    -2.1151 C.3        1          -0.1276
     16 C12        -0.5382   -27.5258    -2.3524 C.3        1          -0.1376
     17 C13         0.4301   -28.7143    -2.4737 C.3        1          -0.1434
     18 C14         1.4044   -27.9083    -1.5985 C.3        1          -0.1315
     19 C15         0.0733   -19.7047    -1.2884 C.3        1           0.0712
     20 C16        -0.9913   -20.7078    -1.6507 C.ar       1          -0.1010
     21 C17        -1.7257   -20.5467    -2.8045 C.ar       1          -0.1662
     22 C18        -2.7055   -21.4648    -3.1451 C.ar       1          -0.1057
     23 C19        -2.9576   -22.5561    -2.3297 C.ar       1           0.0510
     24 O2         -3.9213   -23.4511    -2.6811 O.3        1          -0.2967
     25 C20        -4.4035   -24.3152    -1.6472 C.3        1           0.0496
     26 C21        -5.2603   -23.5181    -0.6614 C.3        1          -0.0833
     27 C22        -6.6626   -23.3277    -1.2427 C.3        1          -0.1799
     28 C23        -7.2943   -24.6748    -1.4823 C.2        1           0.4904
     29 O3         -7.4634   -25.4430    -0.5507 O.co2      1          -0.6990
     30 O4         -7.6363   -24.9964    -2.6074 O.co2      1          -0.7072
     31 C24        -3.1809   -24.8936    -0.9248 C.3        1           0.0174
     32 O5         -2.4639   -23.7958    -0.3511 O.3        1          -0.2560
     33 C25        -2.2259   -22.7329    -1.1609 C.ar       1           0.1024
     34 C26        -1.2303   -21.8068    -0.8181 C.ar       1          -0.1171
     35 C27        -0.4444   -21.9870     0.4133 C.2        1           0.5229
     36 O6          0.5981   -22.6265     0.3854 O.co2      1          -0.6964
     37 O7         -0.8339   -21.4974     1.4646 O.co2      1          -0.6419
     38 H2          2.4081   -18.6441    -0.6827 H          1           0.1213
     39 H3          1.5804   -19.1650     0.8045 H          1           0.1320
     40 H4          3.0325   -20.0290     0.2448 H          1           0.1091
     41 H5          1.4041   -21.5429    -2.6273 H          1           0.1584
     42 H6          2.3069   -20.0091    -2.6528 H          1           0.1311
     43 H7          4.4786   -19.8314    -1.5806 H          1           0.1421
     44 H8          6.5137   -21.0129    -0.8641 H          1           0.1390
     45 H9          6.4669   -23.4428    -0.4818 H          1           0.1385
     46 H10         4.3820   -24.7046    -0.8130 H          1           0.1338
     47 H11         2.3871   -25.1310    -0.1915 H          1           0.4026
     48 H12         0.2049   -26.0521    -0.1034 H          1           0.0786
     49 H13        -0.2954   -24.8899    -1.3552 H          1           0.0778
     50 H14         1.1340   -26.2439    -3.0312 H          1           0.0968
     51 H15        -1.2014   -27.5890    -1.4897 H          1           0.0837
     52 H16        -1.0667   -27.2970    -3.2779 H          1           0.0669
     53 H17         0.0661   -29.6245    -1.9971 H          1           0.0707
     54 H18         0.7910   -28.8818    -3.4884 H          1           0.0813
     55 H19         2.4444   -27.9884    -1.9153 H          1           0.0733
     56 H20         1.2725   -28.0762    -0.5296 H          1           0.0872
     57 H21        -0.2845   -19.0728    -0.4755 H          1           0.1567
     58 H22         0.3002   -19.0860    -2.1566 H          1           0.1418
     59 H23        -1.5370   -19.6995    -3.4471 H          1           0.1092
     60 H24        -3.2765   -21.3290    -4.0517 H          1           0.1344
     61 H25        -4.9942   -25.1207    -2.0834 H          1           0.0817
     62 H26        -5.3285   -24.0603     0.2816 H          1           0.0868
     63 H27        -4.8034   -22.5438    -0.4883 H          1           0.0741
     64 H28        -7.2731   -22.7599    -0.5406 H          1           0.0629
     65 H29        -6.5944   -22.7855    -2.1860 H          1           0.0560
     66 H30        -3.5039   -25.5761    -0.1387 H          1           0.0766
     67 H31        -2.5449   -25.4196    -1.6368 H          1           0.1245
@<TRIPOS>BOND
     1    1    2 1
     2    1   38 1
     3    1   39 1
     4    1   40 1
     5    2    3 1
     6    2    4 1
     7    2   19 1
     8    4    5 1
     9    4   41 1
    10    4   42 1
    11    5   10 ar
    12    5    6 ar
    13    6    7 ar
    14    6   43 1
    15    7    8 ar
    16    7   44 1
    17    8    9 ar
    18    8   45 1
    19    9   10 ar
    20    9   46 1
    21   10   11 1
    22   11   12 2
    23   11   13 am
    24   13   14 1
    25   13   47 1
    26   14   15 1
    27   14   48 1
    28   14   49 1
    29   15   18 1
    30   15   16 1
    31   15   50 1
    32   16   17 1
    33   16   51 1
    34   16   52 1
    35   17   18 1
    36   17   53 1
    37   17   54 1
    38   18   55 1
    39   18   56 1
    40   19   20 1
    41   19   57 1
    42   19   58 1
    43   20   34 ar
    44   20   21 ar
    45   21   22 ar
    46   21   59 1
    47   22   23 ar
    48   22   60 1
    49   23   33 ar
    50   23   24 1
    51   24   25 1
    52   25   26 1
    53   25   31 1
    54   25   61 1
    55   26   27 1
    56   26   62 1
    57   26   63 1
    58   27   28 1
    59   27   64 1
    60   27   65 1
    61   28   29 1
    62   28   30 2
    63   31   32 1
    64   31   66 1
    65   31   67 1
    66   32   33 1
    67   33   34 ar
    68   34   35 1
    69   35   36 1
    70   35   37 2
