AVX38784_5, 3
##########                 Name:           AVX38784_0
##########          Protonation:                   77
##########               SMILES:   [C@@H](C)NC(=O)c1ccccc1C[NH+](C)Cc2ccc3c(c2C(=O)[O-])OC[C@@H](O3)CCC(=O)[O-]
##########            Long Name:   ]methyl]-2-(3-oxido-3-oxo-propyl)-2,3-dihydro-1,4-benzodioxine-5-carboxylate
##########          FlexRecCode: 1
##########               Number:                  207
##########   Ligand Source File: /raid1/people/rgc/Examples/sampl4/screening/ligands/build_1//sampl4-hivint-00000
##########           GlobalRank: 34
##########                 Rank:                    1
##########               Setnum:                   19
##########             Matchnum:                 2535
##########                Cloud:                    1
##########        Electrostatic:           -25.102501
##########        Van der Waals:           -20.858889
##########  Ligand Polar Desolv:            14.702997
########## Ligand Apolar Desolv:            -2.709066
##########      Internal Energy:             0.000000
##########      Receptor Energy: 0.0
########## Receptor Desolvation:             0.000000
########## Receptor Hydrophobic:             0.000000
##########         Total Energy: -33.97
##########        Ligand Charge:            -1.000000
##########            Arbitrary:    +999.9990
##########     heavy atom count:   35
##########           pose count:    1
##########        Ligand Energy:             0.000000
# num electro vdwattr vdwrepu polsolv apolsol rdesolv rhydroe totalscore fullpol fullapo
#   1   -0.20   -0.12    0.00    0.01   -0.01    0.00    0.00      -0.32    0.15   -0.20
#   2   -0.21   -0.45    0.11   -0.02   -0.03    0.00    0.00      -0.60   -0.12   -0.24
#   3    0.21   -0.29    0.05   -0.02   -0.03    0.00    0.00      -0.07   -0.13   -0.25
#   4   -0.16   -0.07    0.00    0.00   -0.01    0.00    0.00      -0.24    0.04   -0.19
#   5   -1.14   -1.44    1.44    0.00    0.29    0.00    0.00      -0.86   -0.01    1.82
#   6    0.09   -1.01    0.77   -0.19   -0.10    0.00    0.00      -0.44   -1.26   -0.64
#   7    0.85   -0.33    0.03    0.37    0.04    0.00    0.00       0.95    3.02    0.32
#   8    0.43   -1.18    0.69    0.03   -0.09    0.00    0.00      -0.12    0.13   -0.41
#   9    0.12   -1.81    1.46   -0.03   -0.11    0.00    0.00      -0.36   -0.12   -0.44
#  10    0.84   -1.40    0.30   -0.06   -0.15    0.00    0.00      -0.46   -0.18   -0.47
#  11    1.49   -2.00    0.91    0.01   -0.17    0.00    0.00       0.23    0.02   -0.47
#  12    3.28   -1.47    0.26    0.05   -0.12    0.00    0.00       2.00    0.14   -0.34
#  13    0.71   -0.80    0.07    0.02   -0.11    0.00    0.00      -0.11    0.07   -0.39
#  14   -0.81   -0.39    0.01   -0.01   -0.06    0.00    0.00      -1.26   -0.06   -0.26
#  15    5.12   -0.53    0.02    0.02    0.04    0.00    0.00       4.66    0.07    0.16
#  16   -2.70   -0.01    0.00   -0.23    0.04    0.00    0.00      -2.90   -1.94    0.33
#  17    1.46   -0.84    0.12   -0.13   -0.14    0.00    0.00       0.47   -0.37   -0.41
#  18   -0.73   -0.55    0.06   -0.05   -0.08    0.00    0.00      -1.35   -0.17   -0.29
#  19    0.62   -0.88    0.29    0.07   -0.06    0.00    0.00       0.04    0.34   -0.30
#  20    0.62   -0.99    0.29   -0.03   -0.10    0.00    0.00      -0.21   -0.11   -0.40
#  21    0.13   -0.90    0.14    0.22   -0.12    0.00    0.00      -0.54    0.80   -0.46
#  22    0.14   -0.67    0.06    0.01   -0.07    0.00    0.00      -0.53    0.04   -0.30
#  23   -0.60   -0.58    0.03    1.63    0.16    0.00    0.00       0.64    6.34    0.62
#  24    0.11   -0.28    0.01   -0.27   -0.02    0.00    0.00      -0.46   -1.59   -0.12
#  25    0.07   -0.54    0.06    0.36   -0.05    0.00    0.00      -0.10    1.38   -0.18
#  26    0.14   -0.53    0.08    0.87   -0.06    0.00    0.00       0.50    3.62   -0.24
#  27    0.44   -0.25    0.01   -1.60   -0.02    0.00    0.00      -1.42  -15.63   -0.16
#  28   -0.62   -0.15    0.00    2.18   -0.03    0.00    0.00       1.38   28.38   -0.41
#  29   -0.63   -0.14    0.00    2.13   -0.03    0.00    0.00       1.34   30.62   -0.43
#  30    0.12   -0.46    0.05   -0.10   -0.03    0.00    0.00      -0.41   -0.48   -0.12
#  31   -1.99   -0.48    0.03    1.60    0.05    0.00    0.00      -0.77    8.01    0.27
#  32    0.39   -0.57    0.05   -0.08   -0.06    0.00    0.00      -0.26   -0.40   -0.30
#  33   -0.22   -0.67    0.11    0.66   -0.08    0.00    0.00      -0.20    3.35   -0.40
#  34    2.25   -0.73    0.06   -3.15   -0.04    0.00    0.00      -1.62  -12.21   -0.15
#  35   -5.20   -0.87    0.05    5.25   -0.11    0.00    0.00      -0.89   14.90   -0.30
#  36   -3.65   -1.41    1.11    6.25   -0.15    0.00    0.00       2.14   24.50   -0.59
#  37    0.07   -0.03    0.00    0.00   -0.01    0.00    0.00       0.03   -0.04   -0.28
#  38    0.06   -0.01    0.00    0.00    0.00    0.00    0.00       0.04   -0.08   -0.28
#  39    0.08   -0.03    0.00    0.00   -0.01    0.00    0.00       0.03   -0.05   -0.26
#  40    0.11   -0.11    0.02    0.01   -0.03    0.00    0.00       0.00    0.10   -0.28
#  41    0.15   -0.42    0.30    0.05   -0.05    0.00    0.00       0.03    0.27   -0.28
#  42    0.20   -0.06    0.00   -0.01   -0.01    0.00    0.00       0.12   -0.19   -0.26
#  43    0.02   -0.02    0.00    0.00   -0.01    0.00    0.00       0.00    0.08   -0.28
#  44    0.05   -0.01    0.00    0.00    0.00    0.00    0.00       0.04   -0.05   -0.28
#  45    0.05   -0.02    0.00    0.00    0.00    0.00    0.00       0.03    0.00   -0.28
#  46    0.54   -0.03    0.00    0.21    0.07    0.00    0.00       0.79    1.28    0.45
#  47    0.07   -0.47    0.42    0.16   -0.04    0.00    0.00       0.14    0.83   -0.22
#  48   -0.30   -0.21    0.02    0.14   -0.06    0.00    0.00      -0.41    0.64   -0.28
#  49   -3.85   -0.55    0.40    0.05   -0.09    0.00    0.00      -4.04    0.16   -0.28
#  50   -4.23   -0.38    0.07   -0.02   -0.06    0.00    0.00      -4.63   -0.06   -0.18
#  51   -1.61   -0.07    0.00   -0.03   -0.01    0.00    0.00      -1.71   -0.44   -0.26
#  52   -3.58   -0.19    0.02    0.08   -0.05    0.00    0.00      -3.72    0.39   -0.23
#  53   -2.22   -0.30    0.05    0.41   -0.07    0.00    0.00      -2.13    1.74   -0.28
#  54   -3.71   -0.24    0.02    0.17   -0.04    0.00    0.00      -3.80    0.76   -0.18
#  55   -3.18   -0.46    0.20    0.13   -0.06    0.00    0.00      -3.37    0.49   -0.23
#  56   -3.21   -0.18    0.01   -0.14   -0.04    0.00    0.00      -3.57   -0.66   -0.20
#  57   -1.12   -0.25    0.05    0.21   -0.06    0.00    0.00      -1.17    0.91   -0.27
#  58   -1.33   -0.19    0.02    0.16   -0.05    0.00    0.00      -1.40    0.84   -0.28
#  59   -0.09   -0.21    0.02   -0.30   -0.07    0.00    0.00      -0.64   -1.25   -0.28
#  60    0.14   -0.04    0.00   -0.06   -0.01    0.00    0.00       0.03   -1.64   -0.28
#  61   -0.32   -0.30    0.06   -0.37   -0.08    0.00    0.00      -1.01   -1.30   -0.28
#  62    0.01   -0.14    0.01   -0.28   -0.04    0.00    0.00      -0.44   -1.98   -0.28
#  63   -0.01   -0.21    0.04   -0.44   -0.05    0.00    0.00      -0.67   -2.29   -0.28
#  64   -0.14   -0.37    0.27   -0.51   -0.06    0.00    0.00      -0.81   -2.23   -0.27
#  65    0.65   -0.13    0.02   -0.32   -0.03    0.00    0.00       0.17   -2.65   -0.28
#  66    0.81   -0.24    0.05   -0.34   -0.06    0.00    0.00       0.22   -1.58   -0.28

@<TRIPOS>MOLECULE
       AVX38784_0        77
   66    68     0     0     0



@<TRIPOS>ATOM
      1 C1         -0.6281   -26.5852     3.3973 C.3        1          -0.1557
      2 C2         -0.3873   -25.0781     3.5036 C.3        1          -0.1324
      3 C3         -0.6042   -24.4292     2.1350 C.3        1           0.1390
      4 C4         -2.0397   -24.6851     1.6712 C.3        1          -0.1645
      5 N1         -0.3738   -22.9861     2.2366 N.am       1          -0.7152
      6 C5          0.0875   -22.3006     1.1718 C.2        1           0.5601
      7 O1          0.3123   -22.8800     0.1271 O.2        1          -0.5339
      8 C6          0.3200   -20.8443     1.2744 C.ar       1          -0.1211
      9 C7          0.0682   -20.1769     2.4744 C.ar       1          -0.0741
     10 C8          0.2878   -18.8181     2.5636 C.ar       1          -0.1169
     11 C9          0.7560   -18.1164     1.4666 C.ar       1          -0.0710
     12 C10         1.0075   -18.7716     0.2746 C.ar       1          -0.1430
     13 C11         0.7976   -20.1316     0.1737 C.ar       1          -0.0526
     14 C12         1.0776   -20.8448    -1.1240 C.3        1           0.0510
     15 N2          2.4698   -21.3135    -1.1346 N.4        1          -0.3733
     16 H1          2.6170   -21.9477    -0.3636 H          1           0.4293
     17 C13         3.3747   -20.1640    -1.0026 C.3        1          -0.0634
     18 C14         2.7427   -22.0089    -2.3995 C.3        1           0.0590
     19 C15         2.2014   -23.4135    -2.3276 C.ar       1          -0.1331
     20 C16         1.4941   -23.9348    -3.3881 C.ar       1          -0.1129
     21 C17         0.9946   -25.2252    -3.3296 C.ar       1          -0.1202
     22 C18         1.2002   -26.0078    -2.2041 C.ar       1           0.0660
     23 O2          0.7060   -27.2760    -2.1733 O.3        1          -0.2954
     24 C19         0.6109   -27.8981    -0.8872 C.3        1           0.0487
     25 C20         0.3824   -29.4014    -1.0572 C.3        1          -0.0829
     26 C21        -1.0939   -29.6615    -1.3633 C.3        1          -0.1808
     27 C22        -1.9403   -29.1501    -0.2261 C.2        1           0.4906
     28 O3         -1.7888   -29.5997     0.8969 O.co2      1          -0.6998
     29 O4         -2.7768   -28.2867    -0.4294 O.co2      1          -0.7061
     30 C23         1.9282   -27.6563    -0.1377 C.3        1           0.0180
     31 O5          2.1181   -26.2430    -0.0102 O.3        1          -0.2585
     32 C24         1.9098   -25.4959    -1.1245 C.ar       1           0.0885
     33 C25         2.4220   -24.1913    -1.1858 C.ar       1          -0.1257
     34 C26         3.1826   -23.6414    -0.0521 C.2        1           0.5226
     35 O6          4.3971   -23.7807    -0.0051 O.co2      1          -0.7091
     36 O7          2.6003   -23.0448     0.8434 O.co2      1          -0.6286
     37 H2         -0.4735   -27.0475     4.3723 H          1           0.0582
     38 H3         -1.6507   -26.7675     3.0669 H          1           0.0582
     39 H4          0.0685   -27.0146     2.6771 H          1           0.0545
     40 H5         -1.0838   -24.6487     4.2238 H          1           0.0814
     41 H6          0.6354   -24.8958     3.8339 H          1           0.0678
     42 H7          0.0922   -24.8586     1.4148 H          1           0.0938
     43 H8         -2.1944   -24.2229     0.6962 H          1           0.0567
     44 H9         -2.2113   -25.7589     1.5956 H          1           0.0616
     45 H10        -2.7362   -24.2557     2.3915 H          1           0.0684
     46 H11        -0.5531   -22.5240     3.0704 H          1           0.3999
     47 H12        -0.2979   -20.7234     3.3310 H          1           0.1329
     48 H13         0.0934   -18.3006     3.4914 H          1           0.1375
     49 H14         0.9255   -17.0524     1.5415 H          1           0.1390
     50 H15         1.3725   -18.2180    -0.5779 H          1           0.1295
     51 H16         0.4063   -21.6978    -1.2221 H          1           0.1506
     52 H17         0.9187   -20.1597    -1.9567 H          1           0.1472
     53 H18         4.4077   -20.5119    -1.0104 H          1           0.1167
     54 H19         3.2158   -19.4790    -1.8355 H          1           0.1160
     55 H20         3.1722   -19.6480    -0.0641 H          1           0.1218
     56 H21         2.2607   -21.4753    -3.2187 H          1           0.1658
     57 H22         3.8186   -22.0424    -2.5709 H          1           0.1107
     58 H23         1.3277   -23.3338    -4.2699 H          1           0.1286
     59 H24         0.4408   -25.6243    -4.1664 H          1           0.1365
     60 H25        -0.2165   -27.4615    -0.3279 H          1           0.0829
     61 H26         0.9948   -29.7714    -1.8796 H          1           0.0740
     62 H27         0.6591   -29.9171    -0.1376 H          1           0.0869
     63 H28        -1.3706   -29.1456    -2.2827 H          1           0.0565
     64 H29        -1.2567   -30.7324    -1.4844 H          1           0.0636
     65 H30         1.8770   -28.1112     0.8515 H          1           0.1243
     66 H31         2.7557   -28.0892    -0.6996 H          1           0.0756
@<TRIPOS>BOND
     1    1    2 1
     2    1   37 1
     3    1   38 1
     4    1   39 1
     5    2    3 1
     6    2   40 1
     7    2   41 1
     8    3    4 1
     9    3    5 1
    10    3   42 1
    11    4   43 1
    12    4   44 1
    13    4   45 1
    14    5    6 am
    15    5   46 1
    16    6    7 2
    17    6    8 1
    18    8   13 ar
    19    8    9 ar
    20    9   10 ar
    21    9   47 1
    22   10   11 ar
    23   10   48 1
    24   11   12 ar
    25   11   49 1
    26   12   13 ar
    27   12   50 1
    28   13   14 1
    29   14   15 1
    30   14   51 1
    31   14   52 1
    32   15   16 1
    33   15   17 1
    34   15   18 1
    35   17   53 1
    36   17   54 1
    37   17   55 1
    38   18   19 1
    39   18   56 1
    40   18   57 1
    41   19   33 ar
    42   19   20 ar
    43   20   21 ar
    44   20   58 1
    45   21   22 ar
    46   21   59 1
    47   22   32 ar
    48   22   23 1
    49   23   24 1
    50   24   25 1
    51   24   30 1
    52   24   60 1
    53   25   26 1
    54   25   61 1
    55   25   62 1
    56   26   27 1
    57   26   63 1
    58   26   64 1
    59   27   28 1
    60   27   29 2
    61   30   31 1
    62   30   65 1
    63   30   66 1
    64   31   32 1
    65   32   33 ar
    66   33   34 1
    67   34   35 1
    68   34   36 2
