AVX38783_1, 3
##########                 Name:           AVX38783_0
##########          Protonation:                   61
##########               SMILES:   CC[NH+](Cc1ccccc1C(=O)NCc2ccco2)Cc3ccc4c(c3C(=O)[O-])OC[C@@H](O4)CCC(=O)[O-]
##########            Long Name:   ]methyl]-2-(3-oxido-3-oxo-propyl)-2,3-dihydro-1,4-benzodioxine-5-carboxylate
##########          FlexRecCode: 1
##########               Number:                  572
##########   Ligand Source File: /raid1/people/rgc/Examples/sampl4/screening/ligands/build_1//sampl4-hivint-00000
##########           GlobalRank: 45
##########                 Rank:                    1
##########               Setnum:                   86
##########             Matchnum:                 2540
##########                Cloud:                    1
##########        Electrostatic:           -16.667236
##########        Van der Waals:           -22.595135
##########  Ligand Polar Desolv:            11.024051
########## Ligand Apolar Desolv:            -3.257074
##########      Internal Energy:             0.000000
##########      Receptor Energy: 0.0
########## Receptor Desolvation:             0.000000
########## Receptor Hydrophobic:             0.000000
##########         Total Energy: -31.5
##########        Ligand Charge:            -1.000000
##########            Arbitrary:    +999.9990
##########     heavy atom count:   39
##########           pose count:    1
##########        Ligand Energy:             0.000000
# num electro vdwattr vdwrepu polsolv apolsol rdesolv rhydroe totalscore fullpol fullapo
#   1   -0.53   -0.05    0.00    0.67   -0.01    0.00    0.00       0.09   29.28   -0.41
#   2    0.33   -0.04    0.00   -0.28    0.00    0.00    0.00       0.00  -16.34   -0.16
#   3   -0.45   -0.03    0.00    0.48   -0.01    0.00    0.00      -0.01   31.26   -0.43
#   4   -0.11   -0.02    0.00    0.06    0.00    0.00    0.00      -0.07    3.88   -0.25
#   5   -0.06   -0.05    0.00    0.06   -0.01    0.00    0.00      -0.06    1.48   -0.18
#   6    0.03   -0.04    0.00   -0.05    0.00    0.00    0.00      -0.07   -1.83   -0.12
#   7    0.01   -0.03    0.00   -0.02    0.00    0.00    0.00      -0.04   -0.71   -0.12
#   8   -0.14   -0.06    0.00    0.30    0.01    0.00    0.00       0.11    8.61    0.27
#   9   -0.06   -0.11    0.00   -0.03   -0.01    0.00    0.00      -0.21   -0.62   -0.30
#  10    0.23   -0.21    0.01    0.26   -0.03    0.00    0.00       0.25    2.74   -0.30
#  11   -0.33   -0.42    0.06   -1.70   -0.02    0.00    0.00      -2.41  -12.84   -0.15
#  12    0.18   -0.30    0.02    3.41   -0.08    0.00    0.00       3.23   25.67   -0.59
#  13   -0.97   -1.73    2.26    2.43   -0.04    0.00    0.00       1.95   14.15   -0.25
#  14    0.88   -0.32    0.01    0.06   -0.03    0.00    0.00       0.60    0.45   -0.23
#  15   -0.87   -0.39    0.02   -0.03   -0.06    0.00    0.00      -1.33   -0.12   -0.28
#  16    4.74   -0.46    0.02   -0.01    0.01    0.00    0.00       4.30   -0.04    0.07
#  17   -2.57   -0.01    0.00   -0.25    0.03    0.00    0.00      -2.80   -2.68    0.30
#  18   -0.61   -0.75    0.09    0.05   -0.12    0.00    0.00      -1.33    0.15   -0.37
#  19    3.13   -2.04    0.91    0.19   -0.12    0.00    0.00       2.06    0.55   -0.35
#  20    3.81   -2.33    1.34    0.28   -0.13    0.00    0.00       2.97    0.74   -0.34
#  21   -0.34   -0.44    0.02    0.02   -0.07    0.00    0.00      -0.81    0.08   -0.28
#  22    0.77   -1.02    0.16   -0.07   -0.09    0.00    0.00      -0.25   -0.22   -0.31
#  23    1.55   -1.47    0.25   -0.27   -0.16    0.00    0.00      -0.10   -0.66   -0.39
#  24    0.85   -2.32    0.61   -0.25   -0.23    0.00    0.00      -1.34   -0.51   -0.47
#  25   -0.10   -2.16    0.52   -0.12   -0.22    0.00    0.00      -2.07   -0.26   -0.47
#  26   -0.44   -2.20    1.68    0.06   -0.17    0.00    0.00      -1.07    0.16   -0.44
#  27   -0.04   -1.62    1.24    0.14   -0.12    0.00    0.00      -0.40    0.49   -0.40
#  28    1.68   -1.19    0.72   -1.16   -0.15    0.00    0.00      -0.09   -4.96   -0.63
#  29   -0.28   -1.29    0.89    1.57    0.05    0.00    0.00       0.93    6.92    0.22
#  30   -5.15   -0.65    0.05    1.79    0.53    0.00    0.00      -3.43    7.81    2.32
#  31    1.14   -0.28    0.01   -0.65   -0.08    0.00    0.00       0.15   -3.82   -0.47
#  32   -0.35   -0.83    0.12    0.25   -0.08    0.00    0.00      -0.89    1.01   -0.31
#  33   -1.08   -1.19    0.12    0.93   -0.18    0.00    0.00      -1.39    2.57   -0.51
#  34   -1.07   -1.81    0.29    1.13   -0.25    0.00    0.00      -1.72    2.28   -0.51
#  35   -0.24   -2.50    1.62    0.09   -0.12    0.00    0.00      -1.15    0.20   -0.27
#  36   -1.77   -1.70    1.27    0.81    0.07    0.00    0.00      -1.32    2.76    0.25
#  37    1.04   -0.37    0.02    0.03   -0.05    0.00    0.00       0.66    0.19   -0.39
#  38    0.47   -0.24    0.01    0.14   -0.04    0.00    0.00       0.33    1.49   -0.46
#  39   -0.06   -0.13    0.00    0.01   -0.02    0.00    0.00      -0.20    0.15   -0.30
#  40   -0.21   -0.12    0.00    0.50    0.04    0.00    0.00       0.22    7.58    0.62
#  41    0.03    0.00    0.00   -0.02    0.00    0.00    0.00       0.01   -2.27   -0.27
#  42    0.03    0.00    0.00   -0.02    0.00    0.00    0.00       0.01   -2.48   -0.28
#  43    0.07   -0.02    0.00   -0.04   -0.01    0.00    0.00       0.01   -2.16   -0.28
#  44    0.06   -0.03    0.00   -0.05   -0.01    0.00    0.00      -0.03   -1.25   -0.28
#  45    0.04   -0.01    0.00   -0.02    0.00    0.00    0.00       0.01   -1.81   -0.28
#  46    0.08   -0.01    0.00   -0.03    0.00    0.00    0.00       0.04   -2.92   -0.28
#  47    0.06   -0.01    0.00   -0.03   -0.01    0.00    0.00       0.02   -1.49   -0.28
#  48   -2.27   -0.21    0.02    0.28   -0.06    0.00    0.00      -2.23    1.23   -0.27
#  49   -1.99   -0.13    0.01   -0.07   -0.02    0.00    0.00      -2.20   -0.59   -0.15
#  50   -2.21   -0.31    0.06    0.24   -0.05    0.00    0.00      -2.26    0.99   -0.20
#  51   -3.76   -0.24    0.02    0.55   -0.07    0.00    0.00      -3.49    2.31   -0.28
#  52   -0.69   -0.66    0.63   -0.15   -0.06    0.00    0.00      -0.94   -0.53   -0.22
#  53   -3.05   -0.45    0.12   -0.04   -0.10    0.00    0.00      -3.52   -0.11   -0.27
#  54   -2.30   -0.38    0.14   -0.14   -0.08    0.00    0.00      -2.76   -0.49   -0.28
#  55   -1.81   -0.11    0.00    0.01   -0.02    0.00    0.00      -1.92    0.06   -0.14
#  56   -2.85   -0.19    0.01    0.54   -0.06    0.00    0.00      -2.55    2.42   -0.27
#  57   -3.36   -0.29    0.04    0.72   -0.08    0.00    0.00      -2.96    2.60   -0.28
#  58   -1.89   -0.77    0.36    0.74   -0.13    0.00    0.00      -1.69    1.55   -0.28
#  59    0.60   -0.51    0.16    0.22   -0.10    0.00    0.00       0.36    0.60   -0.28
#  60    1.60   -0.42    0.16   -0.08   -0.07    0.00    0.00       1.20   -0.25   -0.22
#  61    4.07   -0.01    0.00   -0.49    0.06    0.00    0.00       3.63   -3.36    0.43
#  62    0.59   -0.06    0.00   -0.06   -0.02    0.00    0.00       0.45   -0.94   -0.28
#  63    0.24   -0.05    0.00   -0.04   -0.01    0.00    0.00       0.13   -0.82   -0.28
#  64    0.57   -0.27    0.03   -0.53   -0.07    0.00    0.00      -0.27   -2.01   -0.28
#  65   -0.48   -0.68    0.48   -0.70   -0.15    0.00    0.00      -1.52   -1.32   -0.28
#  66    1.27   -0.76    0.49   -0.48   -0.11    0.00    0.00       0.40   -1.18   -0.28
#  67   -1.93   -0.15    0.03    0.01   -0.03    0.00    0.00      -2.07    0.13   -0.28
#  68   -0.41   -0.07    0.00   -0.12   -0.02    0.00    0.00      -0.61   -1.74   -0.28

@<TRIPOS>MOLECULE
       AVX38783_0        61
   68    71     0     0     0



@<TRIPOS>ATOM
      1 O1         -5.3871   -29.6792     0.7052 O.co2      1          -0.7002
      2 C1         -6.0955   -28.7661     0.3164 C.2        1           0.4906
      3 O2         -7.2048   -29.0030    -0.1307 O.co2      1          -0.7067
      4 C2         -5.6021   -27.3443     0.3942 C.3        1          -0.1799
      5 C3         -4.3254   -27.2013    -0.4367 C.3        1          -0.0820
      6 C4         -3.8246   -25.7578    -0.3577 C.3        1           0.0502
      7 C5         -3.0419   -25.5521     0.9462 C.3        1           0.0201
      8 O3         -2.5758   -24.1988     0.9804 O.3        1          -0.2606
      9 C6         -1.9995   -23.7228    -0.1529 C.ar       1           0.0902
     10 C7         -1.2051   -22.5682    -0.0903 C.ar       1          -0.0928
     11 C8         -0.9965   -21.8830     1.1956 C.2        1           0.5279
     12 O4         -1.7653   -20.9999     1.5500 O.co2      1          -0.6371
     13 O5         -0.0542   -22.1969     1.9101 O.co2      1          -0.7096
     14 C9         -0.6117   -22.0715    -1.2557 C.ar       1          -0.1137
     15 C10         0.2429   -20.8316    -1.1975 C.3        1           0.0605
     16 N1          1.6391   -21.2108    -0.9425 N.4        1          -0.3539
     17 H1          1.6661   -21.9600    -0.2671 H          1           0.4368
     18 C11         2.3733   -20.0517    -0.4177 C.3        1           0.0285
     19 C12         1.7346   -19.5926     0.8678 C.2        1          -0.1684
     20 C13         1.2547   -18.3773     0.9631 C.2        1          -0.1474
     21 C14         2.2617   -21.6583    -2.1956 C.3        1           0.0225
     22 C15         3.6938   -22.0473    -1.9339 C.ar       1          -0.0821
     23 C16         4.6962   -21.1046    -2.0365 C.ar       1          -0.1053
     24 C17         6.0114   -21.4601    -1.7966 C.ar       1          -0.0926
     25 C18         6.3310   -22.7618    -1.4526 C.ar       1          -0.1036
     26 C19         5.3386   -23.7138    -1.3462 C.ar       1          -0.0818
     27 C20         4.0087   -23.3605    -1.5818 C.ar       1          -0.1088
     28 C21         2.9391   -24.3744    -1.4639 C.2        1           0.5435
     29 O6          2.2444   -24.6395    -2.4256 O.2        1          -0.5088
     30 N2          2.7344   -25.0048    -0.2905 N.am       1          -0.7107
     31 C22         1.6748   -26.0095    -0.1737 C.3        1           0.2018
     32 C23         2.2298   -27.3677    -0.5179 C.2        1          -0.0419
     33 C24         2.2604   -27.9169    -1.7454 C.2        1          -0.1763
     34 C25         2.8621   -29.1891    -1.6099 C.2        1          -0.2182
     35 C26         3.1631   -29.3412    -0.3078 C.2        1          -0.0261
     36 O7          2.7831   -28.2323     0.3479 O.3        1          -0.1702
     37 C27        -0.8098   -22.7162    -2.4563 C.ar       1          -0.1138
     38 C28        -1.5929   -23.8570    -2.5172 C.ar       1          -0.1211
     39 C29        -2.1867   -24.3635    -1.3718 C.ar       1           0.0633
     40 O8         -2.9450   -25.4912    -1.4555 O.3        1          -0.2987
     41 H2         -6.3668   -26.6726     0.0041 H          1           0.0633
     42 H3         -5.3902   -27.0896     1.4325 H          1           0.0560
     43 H4         -3.5608   -27.8730    -0.0466 H          1           0.0846
     44 H5         -4.5374   -27.4561    -1.4751 H          1           0.0721
     45 H6         -4.6717   -25.0725    -0.3908 H          1           0.0801
     46 H7         -3.6941   -25.7378     1.7997 H          1           0.1197
     47 H8         -2.1924   -26.2345     0.9766 H          1           0.0699
     48 H9          0.1783   -20.3008    -2.1473 H          1           0.1028
     49 H10        -0.1101   -20.1842    -0.3948 H          1           0.1590
     50 H11         3.4092   -20.3331    -0.2285 H          1           0.1119
     51 H12         2.3440   -19.2424    -1.1472 H          1           0.1200
     52 H13         1.6725   -20.2654     1.7103 H          1           0.1407
     53 H14         1.3168   -17.7046     0.1207 H          1           0.0938
     54 H15         0.7969   -18.0484     1.8844 H          1           0.1120
     55 H16         1.7168   -22.5184    -2.5850 H          1           0.1637
     56 H17         2.2325   -20.8490    -2.9251 H          1           0.1194
     57 H18         4.4534   -20.0871    -2.3050 H          1           0.1381
     58 H19         6.7923   -20.7184    -1.8786 H          1           0.1364
     59 H20         7.3599   -23.0330    -1.2673 H          1           0.1369
     60 H21         5.5893   -24.7293    -1.0776 H          1           0.1336
     61 H22         3.2889   -24.7933     0.4769 H          1           0.4013
     62 H23         1.2954   -26.0205     0.8482 H          1           0.1126
     63 H24         0.8639   -25.7639    -0.8595 H          1           0.0899
     64 H25         1.8950   -27.4717    -2.6590 H          1           0.1525
     65 H26         3.0447   -29.9022    -2.4002 H          1           0.1509
     66 H27         3.6341   -30.2065     0.1348 H          1           0.2051
     67 H28        -0.3523   -22.3302    -3.3552 H          1           0.1207
     68 H29        -1.7423   -24.3550    -3.4639 H          1           0.1293
@<TRIPOS>BOND
     1    1    2 1
     2    2    3 2
     3    2    4 1
     4    4    5 1
     5    4   41 1
     6    4   42 1
     7    5    6 1
     8    5   43 1
     9    5   44 1
    10    6   40 1
    11    6    7 1
    12    6   45 1
    13    7    8 1
    14    7   46 1
    15    7   47 1
    16    8    9 1
    17    9   39 ar
    18    9   10 ar
    19   10   11 1
    20   10   14 ar
    21   11   12 1
    22   11   13 2
    23   14   15 1
    24   14   37 ar
    25   15   16 1
    26   15   48 1
    27   15   49 1
    28   16   17 1
    29   16   18 1
    30   16   21 1
    31   18   19 1
    32   18   50 1
    33   18   51 1
    34   19   20 2
    35   19   52 1
    36   20   53 1
    37   20   54 1
    38   21   22 1
    39   21   55 1
    40   21   56 1
    41   22   27 ar
    42   22   23 ar
    43   23   24 ar
    44   23   57 1
    45   24   25 ar
    46   24   58 1
    47   25   26 ar
    48   25   59 1
    49   26   27 ar
    50   26   60 1
    51   27   28 1
    52   28   29 2
    53   28   30 am
    54   30   31 1
    55   30   61 1
    56   31   32 1
    57   31   62 1
    58   31   63 1
    59   32   36 1
    60   32   33 2
    61   33   34 1
    62   33   64 1
    63   34   35 2
    64   34   65 1
    65   35   36 1
    66   35   66 1
    67   37   38 ar
    68   37   67 1
    69   38   39 ar
    70   38   68 1
    71   39   40 1
