AVX38780_0, 3
##########                 Name:           AVX38780_0
##########          Protonation:                   39
##########               SMILES:   c1ccc(cc1)CNC(=O)c2ccccc2CN(CC=C)Cc3ccc4c(c3C(=O)[O-])OC[C@H](O4)CCC(=O)[O-]
##########            Long Name:   ]methyl]-2-(3-oxido-3-oxo-propyl)-2,3-dihydro-1,4-benzodioxine-5-carboxylate
##########          FlexRecCode: 1
##########               Number:                   64
##########   Ligand Source File: /raid1/people/rgc/Examples/sampl4/screening/ligands/build_1//sampl4-hivint-00000
##########           GlobalRank: 111
##########                 Rank:                    1
##########               Setnum:                   62
##########             Matchnum:                 7302
##########                Cloud:                    1
##########        Electrostatic:            -3.078371
##########        Van der Waals:           -25.317335
##########  Ligand Polar Desolv:             8.665277
########## Ligand Apolar Desolv:            -2.352093
##########      Internal Energy:             0.000000
##########      Receptor Energy: 0.0
########## Receptor Desolvation:             0.000000
########## Receptor Hydrophobic:             0.000000
##########         Total Energy: -22.08
##########        Ligand Charge:            -2.000000
##########            Arbitrary:    +999.9990
##########     heavy atom count:   42
##########           pose count:    1
##########        Ligand Energy:             0.000000
# num electro vdwattr vdwrepu polsolv apolsol rdesolv rhydroe totalscore fullpol fullapo
#   1   -0.05   -2.68    1.05   -0.01    0.02    0.00    0.00      -1.67   -0.01    0.03
#   2    0.69   -3.22    1.43    2.29    0.63    0.00    0.00       1.83    3.39    0.93
#   3    0.26   -3.34    1.71   -0.69   -0.18    0.00    0.00      -2.25   -1.19   -0.31
#   4    0.84   -2.75    0.93    0.86   -0.22    0.00    0.00      -0.32    1.68   -0.42
#   5    0.12   -1.73    0.30    0.21   -0.19    0.00    0.00      -1.29    0.50   -0.45
#   6   -1.03   -1.52    0.18    0.73   -0.16    0.00    0.00      -1.80    1.71   -0.37
#   7    1.65   -0.77    0.07   -0.91   -0.17    0.00    0.00      -0.13   -2.36   -0.44
#   8   -6.61   -0.93    0.11    2.79    0.65    0.00    0.00      -3.98    9.91    2.32
#   9    5.73   -0.86    0.17   -2.69   -0.15    0.00    0.00       2.19  -11.35   -0.65
#  10   -6.17   -1.05    0.29    4.27    0.09    0.00    0.00      -2.57   15.15    0.32
#  11   -1.01   -0.55    0.03    0.70   -0.08    0.00    0.00      -0.90    3.59   -0.41
#  12   -0.73   -1.08    0.13    0.26   -0.14    0.00    0.00      -1.57    0.82   -0.44
#  13   -0.30   -1.23    0.13    0.59   -0.17    0.00    0.00      -0.98    1.63   -0.47
#  14   -0.08   -0.78    0.08    0.58   -0.12    0.00    0.00      -0.32    2.28   -0.47
#  15   -0.14   -0.30    0.01    0.44   -0.04    0.00    0.00      -0.03    4.09   -0.38
#  16    0.03   -0.26    0.00    0.15   -0.04    0.00    0.00      -0.11    1.53   -0.40
#  17    0.23   -0.13    0.00   -0.36   -0.02    0.00    0.00      -0.27   -4.37   -0.25
#  18   -0.33   -0.12    0.00    0.87    0.09    0.00    0.00       0.51   16.16    1.58
#  19   -0.09   -0.11    0.00   -0.15   -0.03    0.00    0.00      -0.37   -2.15   -0.37
#  20    0.42   -0.15    0.00    0.28   -0.02    0.00    0.00       0.53    4.50   -0.35
#  21    0.48   -0.26    0.03    0.23   -0.03    0.00    0.00       0.45    2.30   -0.34
#  22    0.11   -0.07    0.00   -0.20   -0.01    0.00    0.00      -0.17   -4.17   -0.30
#  23   -0.04   -0.05    0.00    0.03   -0.01    0.00    0.00      -0.07    1.15   -0.33
#  24   -0.10   -0.04    0.00    0.05   -0.01    0.00    0.00      -0.10    2.24   -0.42
#  25   -0.09   -0.03    0.00    0.04   -0.01    0.00    0.00      -0.09    2.11   -0.46
#  26    0.02   -0.02    0.00    0.00    0.00    0.00    0.00       0.00   -0.12   -0.30
#  27   -0.18   -0.01    0.00    0.10    0.01    0.00    0.00      -0.08    9.96    0.62
#  28    0.03    0.00    0.00   -0.01    0.00    0.00    0.00       0.01   -2.27   -0.12
#  29   -0.03    0.00    0.00    0.01    0.00    0.00    0.00      -0.03    1.69   -0.18
#  30   -0.06    0.00    0.00    0.01    0.00    0.00    0.00      -0.05    4.81   -0.24
#  31    0.16    0.00    0.00   -0.03    0.00    0.00    0.00       0.13  -18.86   -0.16
#  32   -0.21    0.00    0.00    0.04    0.00    0.00    0.00      -0.17   32.91   -0.41
#  33   -0.24    0.00    0.00    0.05    0.00    0.00    0.00      -0.18   34.98   -0.43
#  34    0.01    0.00    0.00    0.00    0.00    0.00    0.00       0.00   -0.51   -0.12
#  35   -0.16   -0.01    0.00    0.13    0.00    0.00    0.00      -0.05   12.62    0.27
#  36    0.05   -0.02    0.00   -0.02    0.00    0.00    0.00       0.01   -1.28   -0.30
#  37   -0.09   -0.05    0.00    0.16   -0.01    0.00    0.00       0.02    7.65   -0.41
#  38    0.47   -0.14    0.01   -1.29   -0.01    0.00    0.00      -0.97  -22.47   -0.17
#  39   -0.78   -0.31    0.03    3.18   -0.03    0.00    0.00       2.08   30.51   -0.31
#  40   -0.48   -0.11    0.00    1.97   -0.03    0.00    0.00       1.36   38.22   -0.59
#  41   -0.73   -1.96    0.25    0.41   -0.23    0.00    0.00      -2.26    0.79   -0.45
#  42   -1.40   -2.56    0.72    1.18   -0.28    0.00    0.00      -2.34    1.95   -0.46
#  43   -0.65   -0.94    0.39   -0.36   -0.21    0.00    0.00      -1.77   -0.47   -0.28
#  44    0.11   -0.90    0.52   -0.21   -0.17    0.00    0.00      -0.64   -0.32   -0.26
#  45   -0.02   -1.32    1.60   -0.21   -0.17    0.00    0.00      -0.13   -0.32   -0.26
#  46   -1.37   -0.54    0.14   -0.48   -0.10    0.00    0.00      -2.36   -1.01   -0.22
#  47   -1.03   -0.22    0.02   -0.27   -0.06    0.00    0.00      -1.57   -1.17   -0.28
#  48    1.22   -0.34    0.06   -0.26   -0.09    0.00    0.00       0.59   -0.78   -0.28
#  49    0.43   -0.24    0.04   -0.25   -0.07    0.00    0.00      -0.10   -1.05   -0.28
#  50    2.50   -0.02    0.00   -0.91    0.09    0.00    0.00       1.66   -4.68    0.44
#  51    1.64   -0.40    0.10   -0.72   -0.07    0.00    0.00       0.55   -2.22   -0.22
#  52   -0.15   -0.59    0.25   -0.86   -0.10    0.00    0.00      -1.45   -2.34   -0.28
#  53    0.00   -0.26    0.07   -0.66   -0.07    0.00    0.00      -0.92   -2.83   -0.28
#  54    0.15   -0.04    0.00   -0.08   -0.01    0.00    0.00       0.03   -2.17   -0.21
#  55    0.17   -0.03    0.00    0.00   -0.01    0.00    0.00       0.13   -0.10   -0.25
#  56    0.22   -0.07    0.01   -0.15   -0.01    0.00    0.00       0.00   -2.03   -0.18
#  57   -0.11   -0.04    0.00   -0.09   -0.01    0.00    0.00      -0.25   -1.89   -0.22
#  58   -0.16   -0.04    0.00   -0.05   -0.01    0.00    0.00      -0.25   -1.30   -0.23
#  59   -0.18   -0.03    0.00   -0.06   -0.01    0.00    0.00      -0.27   -2.24   -0.23
#  60   -0.22   -0.07    0.01   -0.12   -0.02    0.00    0.00      -0.42   -1.71   -0.27
#  61   -0.05   -0.05    0.01   -0.14   -0.02    0.00    0.00      -0.26   -2.08   -0.28
#  62    0.13   -0.04    0.00   -0.04   -0.01    0.00    0.00       0.04   -0.82   -0.21
#  63    0.01   -0.01    0.00   -0.04    0.00    0.00    0.00      -0.05   -2.31   -0.21
#  64    0.08   -0.01    0.00   -0.07    0.00    0.00    0.00      -0.01   -4.52   -0.28
#  65    0.09   -0.01    0.00   -0.05    0.00    0.00    0.00       0.02   -4.51   -0.28
#  66    0.04    0.00    0.00   -0.01    0.00    0.00    0.00       0.03   -2.64   -0.28
#  67    0.03    0.00    0.00   -0.01    0.00    0.00    0.00       0.03   -3.11   -0.28
#  68    0.03    0.00    0.00    0.00    0.00    0.00    0.00       0.02   -1.68   -0.28
#  69    0.02    0.00    0.00    0.00    0.00    0.00    0.00       0.02   -2.67   -0.27
#  70    0.02    0.00    0.00    0.00    0.00    0.00    0.00       0.01   -3.20   -0.28
#  71    0.03    0.00    0.00   -0.01    0.00    0.00    0.00       0.03   -2.29   -0.28
#  72    0.07    0.00    0.00   -0.03    0.00    0.00    0.00       0.04   -4.65   -0.28
#  73    2.39   -0.51    0.14   -0.67   -0.12    0.00    0.00       1.22   -1.52   -0.28
#  74    1.27   -0.46    0.06   -0.78   -0.15    0.00    0.00      -0.05   -1.47   -0.28

@<TRIPOS>MOLECULE
       AVX38780_0        39
   74    77     0     0     0



@<TRIPOS>ATOM
      1 C1         10.0367   -23.3921    -2.6525 C.3        1           0.0271
      2 O1          8.9141   -22.5080    -2.6699 O.3        1          -0.3185
      3 C2          7.8431   -22.8556    -1.9089 C.ar       1           0.1300
      4 C3          6.7168   -22.0460    -1.8835 C.ar       1          -0.2110
      5 C4          5.6292   -22.4017    -1.1095 C.ar       1          -0.0600
      6 C5          5.6628   -23.5632    -0.3602 C.ar       1          -0.1407
      7 C6          4.4751   -23.9485     0.4837 C.3        1           0.1665
      8 N1          3.5613   -24.7758    -0.3081 N.am       1          -0.7306
      9 C7          2.8003   -25.7085     0.2979 C.2        1           0.5617
     10 O2          2.8720   -25.8633     1.5014 O.2        1          -0.5255
     11 C8          1.8780   -26.5433    -0.5011 C.ar       1          -0.1537
     12 C9          2.3756   -27.3649    -1.5140 C.ar       1          -0.0952
     13 C10         1.5097   -28.1416    -2.2555 C.ar       1          -0.1441
     14 C11         0.1510   -28.1070    -1.9982 C.ar       1          -0.0967
     15 C12        -0.3489   -27.2952    -0.9950 C.ar       1          -0.0922
     16 C13         0.5069   -26.5176    -0.2421 C.ar       1           0.0096
     17 C14        -0.0384   -25.6380     0.8532 C.3        1           0.1060
     18 N2         -1.2297   -24.9302     0.3655 N.3        1          -0.4927
     19 C15        -0.8542   -23.7669    -0.4491 C.3        1           0.0664
     20 C16        -2.0186   -23.3641    -1.3168 C.2        1          -0.1703
     21 C17        -2.5365   -22.1663    -1.2031 C.2        1          -0.1980
     22 C18        -2.0995   -24.5332     1.4807 C.3        1           0.1216
     23 C19        -2.9215   -25.7164     1.9226 C.ar       1          -0.0556
     24 C20        -3.5295   -26.5216     0.9854 C.ar       1          -0.1373
     25 C21        -4.2860   -27.6118     1.3834 C.ar       1          -0.1262
     26 C22        -4.4392   -27.9051     2.7286 C.ar       1           0.0303
     27 O3         -5.1824   -28.9826     3.1026 O.3        1          -0.3051
     28 C23        -5.6263   -29.0161     4.4627 C.3        1           0.0511
     29 C24        -6.7207   -27.9689     4.6780 C.3        1          -0.0810
     30 C25        -7.1887   -28.0122     6.1341 C.3        1          -0.1792
     31 C26        -7.7355   -29.3814     6.4455 C.2        1           0.4919
     32 O4         -8.6862   -29.8156     5.8176 O.co2      1          -0.7016
     33 O5         -7.2272   -30.0553     7.3255 O.co2      1          -0.7116
     34 C27        -4.4166   -28.6946     5.3485 C.3        1           0.0195
     35 O6         -3.9764   -27.3759     5.0091 O.3        1          -0.2593
     36 C28        -3.8327   -27.1018     3.6875 C.ar       1           0.0773
     37 C29        -3.0625   -26.0011     3.2853 C.ar       1          -0.1139
     38 C30        -2.4102   -25.1474     4.2911 C.2        1           0.5273
     39 O7         -1.2761   -25.4060     4.6702 O.co2      1          -0.6668
     40 O8         -3.0020   -24.1791     4.7480 O.co2      1          -0.6795
     41 C31         6.7839   -24.3720    -0.3842 C.ar       1          -0.0588
     42 C32         7.8720   -24.0235    -1.1608 C.ar       1          -0.1529
     43 H1         10.8196   -22.9979    -3.3004 H          1           0.0991
     44 H2         10.4163   -23.4772    -1.6342 H          1           0.0559
     45 H3          9.7303   -24.3754    -3.0095 H          1           0.0554
     46 H4          6.6904   -21.1382    -2.4680 H          1           0.1282
     47 H5          4.7522   -21.7717    -1.0893 H          1           0.1276
     48 H6          4.8145   -24.5119     1.3528 H          1           0.0767
     49 H7          3.9566   -23.0485     0.8138 H          1           0.0741
     50 H8          3.5040   -24.6523    -1.2686 H          1           0.3982
     51 H9          3.4359   -27.3922    -1.7170 H          1           0.1145
     52 H10         1.8934   -28.7777    -3.0395 H          1           0.1182
     53 H11        -0.5228   -28.7167    -2.5816 H          1           0.1214
     54 H12        -1.4107   -27.2726    -0.7988 H          1           0.1492
     55 H13        -0.3073   -26.2522     1.7127 H          1           0.0985
     56 H14         0.7199   -24.9125     1.1480 H          1           0.0642
     57 H15        -0.5839   -22.9376     0.2045 H          1           0.0711
     58 H16        -0.0032   -24.0245    -1.0798 H          1           0.0836
     59 H17        -2.4262   -24.0631    -2.0322 H          1           0.1068
     60 H18        -2.1290   -21.4674    -0.4876 H          1           0.0904
     61 H19        -3.3711   -21.8776    -1.8248 H          1           0.0872
     62 H20        -1.4874   -24.1849     2.3127 H          1           0.1076
     63 H21        -2.7625   -23.7310     1.1566 H          1           0.0180
     64 H22        -3.4163   -26.3017    -0.0659 H          1           0.1138
     65 H23        -4.7594   -28.2365     0.6404 H          1           0.1205
     66 H24        -6.0106   -30.0076     4.7023 H          1           0.0741
     67 H25        -6.3251   -26.9784     4.4528 H          1           0.0807
     68 H26        -7.5625   -28.1824     4.0194 H          1           0.0708
     69 H27        -6.3469   -27.7987     6.7927 H          1           0.0643
     70 H28        -7.9683   -27.2661     6.2875 H          1           0.0547
     71 H29        -4.7071   -28.7294     6.3985 H          1           0.0673
     72 H30        -3.6180   -29.4118     5.1588 H          1           0.1131
     73 H31         6.8075   -25.2790     0.2016 H          1           0.1344
     74 H32         8.7460   -24.6574    -1.1821 H          1           0.1322
@<TRIPOS>BOND
     1    1    2 1
     2    1   43 1
     3    1   44 1
     4    1   45 1
     5    2    3 1
     6    3   42 ar
     7    3    4 ar
     8    4    5 ar
     9    4   46 1
    10    5    6 ar
    11    5   47 1
    12    6    7 1
    13    6   41 ar
    14    7    8 1
    15    7   48 1
    16    7   49 1
    17    8    9 am
    18    8   50 1
    19    9   10 2
    20    9   11 1
    21   11   16 ar
    22   11   12 ar
    23   12   13 ar
    24   12   51 1
    25   13   14 ar
    26   13   52 1
    27   14   15 ar
    28   14   53 1
    29   15   16 ar
    30   15   54 1
    31   16   17 1
    32   17   18 1
    33   17   55 1
    34   17   56 1
    35   18   19 1
    36   18   22 1
    37   19   20 1
    38   19   57 1
    39   19   58 1
    40   20   21 2
    41   20   59 1
    42   21   60 1
    43   21   61 1
    44   22   23 1
    45   22   62 1
    46   22   63 1
    47   23   37 ar
    48   23   24 ar
    49   24   25 ar
    50   24   64 1
    51   25   26 ar
    52   25   65 1
    53   26   36 ar
    54   26   27 1
    55   27   28 1
    56   28   29 1
    57   28   34 1
    58   28   66 1
    59   29   30 1
    60   29   67 1
    61   29   68 1
    62   30   31 1
    63   30   69 1
    64   30   70 1
    65   31   32 1
    66   31   33 2
    67   34   35 1
    68   34   71 1
    69   34   72 1
    70   35   36 1
    71   36   37 ar
    72   37   38 1
    73   38   39 1
    74   38   40 2
    75   41   42 ar
    76   41   73 1
    77   42   74 1
