AVX38741_1, 3
##########                 Name:           AVX38741_0
##########          Protonation:                   97
##########               SMILES:   c1ccc(cc1)CN2CN(Cc3ccccc3C2=O)Cc4ccc5c(c4C(=O)[O-])OC[C@@H](O5)CCC(=O)[O-]
##########            Long Name:   )methyl]-2-(3-oxido-3-oxo-propyl)-2,3-dihydro-1,4-benzodioxine-5-carboxylate
##########          FlexRecCode: 1
##########               Number:                  536
##########   Ligand Source File: /raid1/people/rgc/Examples/sampl4/screening/ligands/build_1//sampl4-hivint-00000
##########           GlobalRank: 92
##########                 Rank:                    1
##########               Setnum:                   22
##########             Matchnum:                   94
##########                Cloud:                    1
##########        Electrostatic:            -8.383506
##########        Van der Waals:           -20.135338
##########  Ligand Polar Desolv:             6.038094
########## Ligand Apolar Desolv:            -2.828735
##########      Internal Energy:             0.000000
##########      Receptor Energy: 0.0
########## Receptor Desolvation:             0.000000
########## Receptor Hydrophobic:             0.000000
##########         Total Energy: -25.31
##########        Ligand Charge:            -2.000000
##########            Arbitrary:    +999.9990
##########     heavy atom count:   38
##########           pose count:    1
##########        Ligand Energy:             0.000000
# num electro vdwattr vdwrepu polsolv apolsol rdesolv rhydroe totalscore fullpol fullapo
#   1   -0.23   -0.01    0.00    0.17    0.00    0.00    0.00      -0.07   32.54   -0.41
#   2    0.15   -0.01    0.00   -0.07    0.00    0.00    0.00       0.07  -18.59   -0.16
#   3   -0.25    0.00    0.00    0.11    0.00    0.00    0.00      -0.15   34.76   -0.43
#   4   -0.04    0.00    0.00    0.02    0.00    0.00    0.00      -0.03    4.71   -0.24
#   5   -0.02   -0.01    0.00    0.01    0.00    0.00    0.00      -0.02    1.67   -0.18
#   6    0.02   -0.01    0.00   -0.02    0.00    0.00    0.00      -0.02   -2.17   -0.12
#   7    0.01   -0.01    0.00    0.00    0.00    0.00    0.00      -0.01   -0.53   -0.12
#   8   -0.11   -0.02    0.00    0.17    0.00    0.00    0.00       0.05   11.94    0.27
#   9    0.04   -0.06    0.00   -0.03   -0.01    0.00    0.00      -0.05   -1.26   -0.30
#  10   -0.05   -0.08    0.00    0.24   -0.01    0.00    0.00       0.10    6.98   -0.41
#  11    0.24   -0.07    0.00   -0.63   -0.01    0.00    0.00      -0.47  -20.91   -0.17
#  12   -0.45   -0.06    0.00    1.19   -0.02    0.00    0.00       0.67   35.85   -0.59
#  13   -0.24   -0.07    0.00    0.97   -0.01    0.00    0.00       0.64   27.72   -0.32
#  14   -0.02   -0.20    0.01    0.09   -0.03    0.00    0.00      -0.14    1.10   -0.32
#  15   -0.13   -0.14    0.00   -0.30   -0.03    0.00    0.00      -0.59   -3.51   -0.30
#  16   -0.99   -0.49    0.09    1.97    0.39    0.00    0.00       0.97   14.28    2.82
#  17    0.10   -0.31    0.02   -1.28   -0.20    0.00    0.00      -1.67   -7.66   -1.19
#  18   -3.73   -0.72    0.05    3.35    0.42    0.00    0.00      -0.64   12.83    1.62
#  19    0.79   -0.86    0.13   -1.09   -0.15    0.00    0.00      -1.19   -2.97   -0.42
#  20    0.09   -1.45    0.19    0.93   -0.15    0.00    0.00      -0.39    2.38   -0.38
#  21   -0.45   -1.95    0.37    1.16   -0.21    0.00    0.00      -1.07    2.51   -0.45
#  22   -0.04   -2.78    0.95    1.06   -0.25    0.00    0.00      -1.05    2.04   -0.47
#  23    1.02   -3.00    1.14    0.75   -0.25    0.00    0.00      -0.35    1.39   -0.47
#  24    1.96   -2.13    0.59    0.84   -0.23    0.00    0.00       1.04    1.74   -0.47
#  25    1.11   -1.46    0.22    0.82   -0.18    0.00    0.00       0.52    2.09   -0.45
#  26    6.53   -1.13    0.24   -3.45   -0.15    0.00    0.00       2.04  -12.14   -0.54
#  27  -10.17   -2.96    3.88    4.79    0.14    0.00    0.00      -4.30   12.92    0.39
#  28   -1.12   -0.81    0.10    0.81   -0.08    0.00    0.00      -1.10    3.37   -0.33
#  29   -0.71   -1.55    0.39    0.45   -0.16    0.00    0.00      -1.58    1.30   -0.46
#  30   -0.46   -1.25    0.13    0.46   -0.17    0.00    0.00      -1.28    1.27   -0.47
#  31   -0.16   -0.62    0.03    0.30   -0.11    0.00    0.00      -0.56    1.25   -0.47
#  32   -0.24   -0.28    0.00    0.29   -0.05    0.00    0.00      -0.28    2.72   -0.45
#  33   -0.18   -0.34    0.01    0.24   -0.05    0.00    0.00      -0.31    1.79   -0.34
#  34    0.36   -0.25    0.02   -0.33   -0.04    0.00    0.00      -0.25   -2.49   -0.33
#  35   -0.14   -0.59    0.18    0.28   -0.05    0.00    0.00      -0.34    2.15   -0.42
#  36   -0.08   -0.38    0.05    0.23   -0.05    0.00    0.00      -0.24    2.04   -0.46
#  37    0.02   -0.11    0.00   -0.01   -0.01    0.00    0.00      -0.10   -0.14   -0.30
#  38   -0.11   -0.05    0.00    0.18    0.01    0.00    0.00       0.03    9.66    0.62
#  39    0.02    0.00    0.00    0.00    0.00    0.00    0.00       0.01   -2.62   -0.27
#  40    0.01    0.00    0.00    0.00    0.00    0.00    0.00       0.01   -3.14   -0.28
#  41    0.01    0.00    0.00   -0.01    0.00    0.00    0.00       0.00   -3.01   -0.28
#  42    0.02    0.00    0.00   -0.01    0.00    0.00    0.00       0.01   -1.62   -0.28
#  43    0.03    0.00    0.00   -0.02    0.00    0.00    0.00       0.01   -2.59   -0.28
#  44    0.03    0.00    0.00   -0.02    0.00    0.00    0.00       0.02   -4.45   -0.28
#  45    0.01    0.00    0.00   -0.01    0.00    0.00    0.00       0.00   -2.19   -0.28
#  46   -0.01   -0.03    0.00   -0.06   -0.01    0.00    0.00      -0.10   -1.92   -0.26
#  47   -0.58   -0.04    0.00   -0.08   -0.01    0.00    0.00      -0.71   -1.90   -0.20
#  48   -0.11   -0.08    0.00   -0.18   -0.02    0.00    0.00      -0.39   -2.03   -0.26
#  49   -0.40   -0.09    0.00   -0.15   -0.02    0.00    0.00      -0.65   -1.76   -0.24
#  50    0.20   -0.40    0.18   -0.51   -0.08    0.00    0.00      -0.60   -1.68   -0.26
#  51    1.13   -0.37    0.10   -0.57   -0.09    0.00    0.00       0.20   -1.73   -0.27
#  52    1.40   -0.31    0.02   -0.68   -0.09    0.00    0.00       0.33   -2.07   -0.28
#  53    0.36   -0.52    0.12   -0.93   -0.13    0.00    0.00      -1.11   -2.07   -0.28
#  54   -1.11   -0.90    0.84   -1.03   -0.16    0.00    0.00      -2.36   -1.78   -0.28
#  55   -2.73   -0.46    0.22   -0.72   -0.11    0.00    0.00      -3.80   -1.90   -0.28
#  56   -2.07   -0.21    0.02   -0.38   -0.05    0.00    0.00      -2.69   -1.95   -0.26
#  57    1.96   -0.73    0.62   -0.88   -0.11    0.00    0.00       0.86   -2.31   -0.28
#  58   -0.03   -0.55    0.19   -0.72   -0.10    0.00    0.00      -1.20   -2.00   -0.28
#  59    0.01   -0.15    0.01   -0.39   -0.05    0.00    0.00      -0.57   -2.25   -0.28
#  60    0.19   -0.03    0.00   -0.08   -0.01    0.00    0.00       0.07   -2.38   -0.28
#  61    0.67   -0.12    0.01   -0.16   -0.03    0.00    0.00       0.37   -1.43   -0.24
#  62    0.09   -0.04    0.00   -0.04   -0.01    0.00    0.00       0.00   -1.07   -0.25
#  63    0.15   -0.37    0.43   -0.60   -0.04    0.00    0.00      -0.44   -4.11   -0.28
#  64    0.07   -0.11    0.01   -0.38   -0.03    0.00    0.00      -0.43   -4.19   -0.28

@<TRIPOS>MOLECULE
       AVX38741_0        97
   64    68     0     0     0



@<TRIPOS>ATOM
      1 O1         -5.8106   -24.2802     7.3839 O.co2      1          -0.7013
      2 C1         -6.4534   -24.6404     6.4124 C.2        1           0.4917
      3 O2         -6.4602   -25.8156     6.0877 O.co2      1          -0.7112
      4 C2         -7.2444   -23.6342     5.6169 C.3        1          -0.1793
      5 C3         -6.2991   -22.5678     5.0599 C.3        1          -0.0812
      6 C4         -5.2595   -23.2306     4.1540 C.3        1           0.0506
      7 C5         -5.8634   -23.4727     2.7640 C.3        1           0.0196
      8 O3         -4.8617   -24.0781     1.9395 O.3        1          -0.2596
      9 C6         -3.6244   -23.5205     1.9731 C.ar       1           0.0794
     10 C7         -2.7099   -23.8087     0.9489 C.ar       1          -0.1138
     11 C8         -3.0929   -24.7053    -0.1536 C.2        1           0.5297
     12 O4         -2.8957   -25.9091    -0.0597 O.co2      1          -0.6727
     13 O5         -3.6084   -24.2467    -1.1639 O.co2      1          -0.6760
     14 C9         -1.4324   -23.2395     0.9806 C.ar       1          -0.0612
     15 C10        -0.4437   -23.5439    -0.1153 C.3        1           0.1116
     16 N1          0.8687   -23.8362     0.4765 N.3        1          -0.4937
     17 C11         1.9495   -23.5114    -0.4568 C.3        1           0.2798
     18 N2          3.2524   -24.0020    -0.0072 N.am       1          -0.6186
     19 C12         4.2243   -23.0774     0.5815 C.3        1           0.1501
     20 C13         5.0979   -22.5073    -0.5062 C.ar       1          -0.1005
     21 C14         6.2671   -23.1527    -0.8630 C.ar       1          -0.1010
     22 C15         7.0684   -22.6297    -1.8607 C.ar       1          -0.1237
     23 C16         6.7003   -21.4616    -2.5017 C.ar       1          -0.1217
     24 C17         5.5306   -20.8168    -2.1455 C.ar       1          -0.1293
     25 C18         4.7271   -21.3420    -1.1508 C.ar       1          -0.0961
     26 C19         3.5543   -25.3124    -0.1376 C.2        1           0.5675
     27 O6          4.6510   -25.7315     0.1772 O.2        1          -0.5396
     28 C20         2.5201   -26.2259    -0.6715 C.ar       1          -0.1296
     29 C21         2.8198   -27.1272    -1.6906 C.ar       1          -0.0724
     30 C22         1.8329   -27.9618    -2.1762 C.ar       1          -0.1314
     31 C23         0.5526   -27.9025    -1.6549 C.ar       1          -0.0989
     32 C24         0.2501   -27.0106    -0.6403 C.ar       1          -0.1028
     33 C25         1.2273   -26.1765    -0.1433 C.ar       1          -0.0393
     34 C26         0.9247   -25.2153     0.9775 C.3        1           0.0878
     35 C27        -1.0790   -22.4010     2.0144 C.ar       1          -0.1371
     36 C28        -1.9827   -22.1156     3.0243 C.ar       1          -0.1244
     37 C29        -3.2531   -22.6698     3.0075 C.ar       1           0.0338
     38 O7         -4.1269   -22.3674     4.0066 O.3        1          -0.3040
     39 H1         -7.7493   -24.1383     4.7929 H          1           0.0642
     40 H2         -7.9849   -23.1618     6.2623 H          1           0.0549
     41 H3         -6.8713   -21.8400     4.4844 H          1           0.0813
     42 H4         -5.7942   -22.0635     5.8840 H          1           0.0713
     43 H5         -4.9445   -24.1792     4.5888 H          1           0.0749
     44 H6         -6.7226   -24.1383     2.8474 H          1           0.1143
     45 H7         -6.1742   -22.5234     2.3278 H          1           0.0684
     46 H8         -0.7864   -24.4083    -0.6840 H          1           0.0159
     47 H9         -0.3595   -22.6828    -0.7782 H          1           0.1243
     48 H10         1.7221   -23.9550    -1.4261 H          1           0.1055
     49 H11         2.0019   -22.4285    -0.5706 H          1           0.0856
     50 H12         3.6965   -22.2677     1.0854 H          1           0.0863
     51 H13         4.8434   -23.6115     1.3023 H          1           0.0904
     52 H14         6.5547   -24.0653    -0.3622 H          1           0.1273
     53 H15         7.9822   -23.1335    -2.1390 H          1           0.1210
     54 H16         7.3267   -21.0527    -3.2806 H          1           0.1164
     55 H17         5.2432   -19.9040    -2.6461 H          1           0.1167
     56 H18         3.8115   -20.8402    -0.8750 H          1           0.1258
     57 H19         3.8186   -27.1727    -2.0987 H          1           0.1252
     58 H20         2.0610   -28.6626    -2.9655 H          1           0.1243
     59 H21        -0.2154   -28.5557    -2.0419 H          1           0.1250
     60 H22        -0.7517   -26.9687    -0.2387 H          1           0.1323
     61 H23         1.7040   -25.2909     1.7357 H          1           0.0912
     62 H24        -0.0354   -25.4746     1.4238 H          1           0.0402
     63 H25        -0.0916   -21.9640     2.0379 H          1           0.1138
     64 H26        -1.6955   -21.4572     3.8307 H          1           0.1222
@<TRIPOS>BOND
     1    1    2 1
     2    2    3 2
     3    2    4 1
     4    4    5 1
     5    4   39 1
     6    4   40 1
     7    5    6 1
     8    5   41 1
     9    5   42 1
    10    6   38 1
    11    6    7 1
    12    6   43 1
    13    7    8 1
    14    7   44 1
    15    7   45 1
    16    8    9 1
    17    9   37 ar
    18    9   10 ar
    19   10   11 1
    20   10   14 ar
    21   11   12 1
    22   11   13 2
    23   14   15 1
    24   14   35 ar
    25   15   16 1
    26   15   46 1
    27   15   47 1
    28   16   34 1
    29   16   17 1
    30   17   18 1
    31   17   48 1
    32   17   49 1
    33   18   19 1
    34   18   26 am
    35   19   20 1
    36   19   50 1
    37   19   51 1
    38   20   25 ar
    39   20   21 ar
    40   21   22 ar
    41   21   52 1
    42   22   23 ar
    43   22   53 1
    44   23   24 ar
    45   23   54 1
    46   24   25 ar
    47   24   55 1
    48   25   56 1
    49   26   27 2
    50   26   28 1
    51   28   33 ar
    52   28   29 ar
    53   29   30 ar
    54   29   57 1
    55   30   31 ar
    56   30   58 1
    57   31   32 ar
    58   31   59 1
    59   32   33 ar
    60   32   60 1
    61   33   34 1
    62   34   61 1
    63   34   62 1
    64   35   36 ar
    65   35   63 1
    66   36   37 ar
    67   36   64 1
    68   37   38 1
