AVX38743_5, 3
##########                 Name:           AVX38743_0
##########          Protonation:                  100
##########               SMILES:   c1ccc\2c(c1)C[C@H](/C2=C/c3ccc4c(c3C(=O)[O-])O[C@H](CO4)CCC(=O)[O-])O
##########            Long Name:   ]methyl]-3-(3-oxido-3-oxo-propyl)-2,3-dihydro-1,4-benzodioxine-5-carboxylate
##########          FlexRecCode: 1
##########               Number:                   17
##########   Ligand Source File: /raid1/people/rgc/Examples/sampl4/screening/ligands/build_1//sampl4-hivint-00000
##########           GlobalRank: 120
##########                 Rank:                    1
##########               Setnum:                   52
##########             Matchnum:                16401
##########                Cloud:                    1
##########        Electrostatic:            -7.266457
##########        Van der Waals:           -20.694311
##########  Ligand Polar Desolv:             9.170446
########## Ligand Apolar Desolv:            -1.484074
##########      Internal Energy:             0.000000
##########      Receptor Energy: 0.0
########## Receptor Desolvation:             0.000000
########## Receptor Hydrophobic:             0.000000
##########         Total Energy: -20.27
##########        Ligand Charge:            -2.000000
##########            Arbitrary:    +999.9990
##########     heavy atom count:   29
##########           pose count:    1
##########        Ligand Energy:             0.000000
# num electro vdwattr vdwrepu polsolv apolsol rdesolv rhydroe totalscore fullpol fullapo
#   1   18.25   -2.04    0.61    4.59    0.69    0.00    0.00      22.10   11.35    1.70
#   2   -3.57   -0.61    0.04   -0.92   -0.06    0.00    0.00      -5.12   -3.02   -0.19
#   3    2.22   -0.73    0.06    0.40   -0.10    0.00    0.00       1.85    1.15   -0.28
#   4    0.93   -0.99    0.07    0.50   -0.15    0.00    0.00       0.36    1.48   -0.44
#   5    0.26   -1.68    0.30    0.52   -0.19    0.00    0.00      -0.79    1.29   -0.47
#   6   -1.05   -1.40    0.14    0.42   -0.20    0.00    0.00      -2.07    1.01   -0.47
#   7   -1.16   -1.35    0.34    0.89   -0.16    0.00    0.00      -1.45    2.64   -0.47
#   8   -0.38   -1.22    0.69    0.95   -0.09    0.00    0.00      -0.05    3.87   -0.38
#   9    0.11   -0.81    0.13    0.84   -0.09    0.00    0.00       0.17    3.53   -0.40
#  10    2.01   -0.62    0.03    0.56   -0.09    0.00    0.00       1.89    2.42   -0.40
#  11   -0.51   -0.56    0.03    0.76   -0.07    0.00    0.00      -0.34    3.90   -0.36
#  12    0.23   -0.59    0.06    0.07   -0.06    0.00    0.00      -0.29    0.36   -0.30
#  13    0.35   -1.54    0.64    0.64   -0.10    0.00    0.00       0.00    1.84   -0.28
#  14   -0.05   -2.46    0.98    0.45   -0.18    0.00    0.00      -1.27    1.13   -0.46
#  15    0.05   -1.47    0.31   -0.28   -0.10    0.00    0.00      -1.49   -0.86   -0.30
#  16   -0.20   -2.58    1.31    2.79    0.28    0.00    0.00       1.60    6.90    0.68
#  17   -0.04   -1.11    0.31   -0.43   -0.04    0.00    0.00      -1.31   -1.30   -0.12
#  18    0.03   -0.34    0.01   -0.21   -0.03    0.00    0.00      -0.53   -1.00   -0.12
#  19   -0.06   -0.25    0.01    0.27   -0.03    0.00    0.00      -0.05    1.86   -0.18
#  20   -0.18   -0.10    0.00    0.38   -0.01    0.00    0.00       0.08    6.57   -0.24
#  21    0.44   -0.10    0.00   -0.90   -0.01    0.00    0.00      -0.56  -22.38   -0.16
#  22   -0.58   -0.06    0.00    1.12   -0.01    0.00    0.00       0.46   34.99   -0.41
#  23   -0.65   -0.07    0.00    1.40   -0.01    0.00    0.00       0.68   40.65   -0.43
#  24   -0.40   -0.25    0.00    1.75    0.03    0.00    0.00       1.13   14.79    0.24
#  25    0.13   -0.50    0.02   -0.28   -0.06    0.00    0.00      -0.69   -1.49   -0.30
#  26    0.08   -0.34    0.01    1.30   -0.05    0.00    0.00       1.00   10.00   -0.41
#  27   -0.32   -0.20    0.00   -1.97   -0.01    0.00    0.00      -2.50  -24.76   -0.17
#  28   -1.02   -0.28    0.01    4.46   -0.04    0.00    0.00       3.13   37.58   -0.34
#  29    0.75   -0.12    0.00    2.32   -0.03    0.00    0.00       2.92   43.09   -0.59
#  30  -16.58   -0.08    0.01   -2.18    0.50    0.00    0.00     -18.33   -5.37    1.24
#  31   -1.78   -0.18    0.01   -0.22   -0.04    0.00    0.00      -2.21   -1.35   -0.28
#  32   -2.06   -0.27    0.03   -0.52   -0.07    0.00    0.00      -2.89   -1.96   -0.27
#  33   -1.98   -0.32    0.08   -0.42   -0.06    0.00    0.00      -2.71   -1.83   -0.28
#  34   -0.69   -0.92    0.92   -0.80   -0.11    0.00    0.00      -1.60   -2.12   -0.28
#  35    1.46   -0.35    0.04   -0.74   -0.10    0.00    0.00       0.31   -2.19   -0.28
#  36    1.95   -0.39    0.15   -0.76   -0.08    0.00    0.00       0.87   -2.59   -0.28
#  37    0.52   -0.20    0.07   -0.31   -0.02    0.00    0.00       0.06   -2.02   -0.15
#  38   -2.54   -0.14    0.02   -0.33   -0.03    0.00    0.00      -3.02   -2.87   -0.24
#  39   -0.69   -0.37    0.12   -1.50   -0.09    0.00    0.00      -2.53   -4.48   -0.26
#  40   -0.09   -1.10    1.01   -2.18   -0.14    0.00    0.00      -2.50   -4.52   -0.28
#  41    0.03   -0.41    0.28   -0.53   -0.07    0.00    0.00      -0.70   -2.05   -0.28
#  42   -0.89   -0.58    0.43   -1.66   -0.10    0.00    0.00      -2.81   -4.55   -0.28
#  43    0.16   -0.11    0.00   -0.28   -0.03    0.00    0.00      -0.25   -2.78   -0.28
#  44    0.05   -0.07    0.00   -0.08   -0.02    0.00    0.00      -0.11   -1.15   -0.28
#  45    0.05   -0.12    0.01   -0.57   -0.03    0.00    0.00      -0.66   -4.70   -0.28
#  46    0.06   -0.03    0.00   -0.13   -0.01    0.00    0.00      -0.11   -3.88   -0.28
#  47    0.08   -0.02    0.00    0.00   -0.01    0.00    0.00       0.06   -0.01   -0.27

@<TRIPOS>MOLECULE
       AVX38743_0       100
   47    50     0     0     0



@<TRIPOS>ATOM
      1 O1          2.4199   -20.1200    -3.5838 O.3        1          -0.5559
      2 C1          2.2880   -20.6085    -2.2473 C.3        1           0.1522
      3 C2          3.6119   -20.4452    -1.4883 C.3        1          -0.1035
      4 C3          4.0486   -21.8352    -1.0922 C.ar       1          -0.1077
      5 C4          5.1643   -22.2607    -0.3956 C.ar       1          -0.1121
      6 C5          5.3597   -23.6064    -0.1454 C.ar       1          -0.1356
      7 C6          4.4385   -24.5382    -0.5915 C.ar       1          -0.1194
      8 C7          3.3220   -24.1293    -1.2862 C.ar       1          -0.1126
      9 C8          3.1151   -22.7658    -1.5451 C.ar       1          -0.0224
     10 C9          2.0145   -22.0931    -2.2578 C.2        1          -0.1614
     11 C10         0.9517   -22.6966    -2.8194 C.2        1           0.0440
     12 C11         0.9295   -24.1589    -2.9663 C.ar       1          -0.0528
     13 C12         1.4400   -24.7565    -4.1184 C.ar       1          -0.1149
     14 C13         1.4201   -26.1291    -4.2548 C.ar       1          -0.1279
     15 C14         0.8945   -26.9343    -3.2521 C.ar       1           0.0279
     16 O2          0.8981   -28.2861    -3.4162 O.3        1          -0.3163
     17 C15         0.0299   -29.0406    -2.5640 C.3        1           0.0262
     18 C16         0.1987   -28.5247    -1.1285 C.3        1           0.0410
     19 C17        -0.7283   -29.2992    -0.1894 C.3        1          -0.0755
     20 C18        -0.9409   -28.4951     1.0949 C.3        1          -0.1833
     21 C19        -1.8540   -29.2579     2.0197 C.2        1           0.4952
     22 O3         -2.9835   -29.5449     1.6614 O.co2      1          -0.7100
     23 O4         -1.4631   -29.5885     3.1264 O.co2      1          -0.7102
     24 O5         -0.1454   -27.1351    -1.1088 O.3        1          -0.2442
     25 C20         0.3771   -26.3622    -2.0956 C.ar       1           0.0878
     26 C21         0.3960   -24.9690    -1.9382 C.ar       1          -0.1148
     27 C22        -0.1396   -24.3558    -0.7168 C.2        1           0.5182
     28 O6          0.5950   -24.1599     0.2424 O.co2      1          -0.6900
     29 O7         -1.3208   -24.0404    -0.6577 O.co2      1          -0.6447
     30 H1          2.5967   -19.1710    -3.6400 H          1           0.3688
     31 H2          1.4868   -20.0806    -1.7301 H          1           0.0713
     32 H3          4.3603   -19.9878    -2.1354 H          1           0.0815
     33 H4          3.4605   -19.8328    -0.5994 H          1           0.0776
     34 H5          5.8870   -21.5386    -0.0456 H          1           0.1116
     35 H6          6.2337   -23.9314     0.3994 H          1           0.1151
     36 H7          4.5955   -25.5882    -0.3940 H          1           0.1183
     37 H8          2.6053   -24.8590    -1.6330 H          1           0.1402
     38 H9          0.1146   -22.1066    -3.1626 H          1           0.1492
     39 H10         1.8515   -24.1428    -4.9062 H          1           0.1243
     40 H11         1.8173   -26.5826    -5.1509 H          1           0.1245
     41 H12        -1.0040   -28.9083    -2.8829 H          1           0.0728
     42 H13         0.2969   -30.0964    -2.6090 H          1           0.1147
     43 H14         1.2335   -28.6523    -0.8111 H          1           0.0729
     44 H15        -1.6883   -29.4620    -0.6792 H          1           0.0710
     45 H16        -0.2771   -30.2610     0.0547 H          1           0.0746
     46 H17         0.0191   -28.3323     1.5847 H          1           0.0499
     47 H18        -1.3920   -27.5334     0.8508 H          1           0.0843
@<TRIPOS>BOND
     1    1    2 1
     2    1   30 1
     3    2   10 1
     4    2    3 1
     5    2   31 1
     6    3    4 1
     7    3   32 1
     8    3   33 1
     9    4    9 ar
    10    4    5 ar
    11    5    6 ar
    12    5   34 1
    13    6    7 ar
    14    6   35 1
    15    7    8 ar
    16    7   36 1
    17    8    9 ar
    18    8   37 1
    19    9   10 1
    20   10   11 2
    21   11   12 1
    22   11   38 1
    23   12   26 ar
    24   12   13 ar
    25   13   14 ar
    26   13   39 1
    27   14   15 ar
    28   14   40 1
    29   15   25 ar
    30   15   16 1
    31   16   17 1
    32   17   18 1
    33   17   41 1
    34   17   42 1
    35   18   19 1
    36   18   24 1
    37   18   43 1
    38   19   20 1
    39   19   44 1
    40   19   45 1
    41   20   21 1
    42   20   46 1
    43   20   47 1
    44   21   22 1
    45   21   23 2
    46   24   25 1
    47   25   26 ar
    48   26   27 1
    49   27   28 1
    50   27   29 2
