AVX38673_1, 3
##########                 Name:           AVX38673_0
##########          Protonation:                  100
##########               SMILES:   CCCCNC(=O)[C@H](c1ccccc1)NC(=O)N(C)Cc2ccc3c(c2C(=O)[O-])OCO3
##########            Long Name:   1-phenyl-ethyl]carbamoyl-methyl-amino]methyl]-1,3-benzodioxole-4-carboxylate
##########          FlexRecCode: 1
##########               Number:                  348
##########   Ligand Source File: /raid1/people/rgc/Examples/sampl4/screening/ligands/build_1//sampl4-hivint-00000
##########           GlobalRank: 29
##########                 Rank:                    1
##########               Setnum:                   67
##########             Matchnum:                13617
##########                Cloud:                    1
##########        Electrostatic:           -23.791010
##########        Van der Waals:           -31.596394
##########  Ligand Polar Desolv:            22.892517
########## Ligand Apolar Desolv:            -2.825504
##########      Internal Energy:             0.000000
##########      Receptor Energy: 0.0
########## Receptor Desolvation:             0.000000
########## Receptor Hydrophobic:             0.000000
##########         Total Energy: -35.32
##########        Ligand Charge:            -1.000000
##########            Arbitrary:    +999.9990
##########     heavy atom count:   32
##########           pose count:    1
##########        Ligand Energy:             0.000000
# num electro vdwattr vdwrepu polsolv apolsol rdesolv rhydroe totalscore fullpol fullapo
#   1   -1.42   -1.33    0.28    0.17   -0.10    0.00    0.00      -2.41    0.33   -0.19
#   2   -0.68   -1.15    0.22    0.12   -0.10    0.00    0.00      -1.59    0.31   -0.25
#   3   -0.12   -0.76    0.09    0.09   -0.07    0.00    0.00      -0.78    0.26   -0.22
#   4    0.19   -0.90    0.31   -0.18   -0.12    0.00    0.00      -0.71   -0.61   -0.42
#   5   -0.43   -0.47    0.02    0.79    0.42    0.00    0.00       0.33    4.22    2.28
#   6    0.15   -0.22    0.00   -0.44   -0.05    0.00    0.00      -0.56   -5.07   -0.60
#   7   -0.43   -0.16    0.00    0.57    0.03    0.00    0.00       0.02    7.06    0.38
#   8   -0.17   -0.12    0.00   -0.15   -0.02    0.00    0.00      -0.45   -2.09   -0.25
#   9    2.40   -0.28    0.01    1.01    0.20    0.00    0.00       3.34    8.62    1.70
#  10   -0.72   -0.47    0.04   -1.98   -0.33    0.00    0.00      -3.45  -12.32   -2.05
#  11   -2.72   -0.90    0.41    2.81    0.07    0.00    0.00      -0.33   15.53    0.37
#  12    3.08   -0.59    0.03    2.40    0.28    0.00    0.00       5.19   10.29    1.21
#  13   -0.83   -0.55    0.07   -0.15   -0.13    0.00    0.00      -1.59   -0.56   -0.48
#  14   -0.67   -0.75    0.08   -1.78   -0.10    0.00    0.00      -3.22   -5.39   -0.31
#  15   -0.05   -1.38    0.15    0.53   -0.16    0.00    0.00      -0.91    1.34   -0.41
#  16    0.53   -2.05    0.46    0.68   -0.20    0.00    0.00      -0.57    1.46   -0.42
#  17   -0.05   -2.78    0.92    0.30   -0.25    0.00    0.00      -1.86    0.57   -0.47
#  18   -0.02   -2.57    0.65   -0.13   -0.18    0.00    0.00      -2.25   -0.23   -0.33
#  19   -2.80   -2.70    0.61    3.31    0.35    0.00    0.00      -1.23    4.92    0.52
#  20    2.65   -1.97    0.29   -2.03    0.01    0.00    0.00      -1.04   -2.98    0.02
#  21   -5.06   -2.98    1.41    5.79    0.21    0.00    0.00      -0.63    9.34    0.34
#  22    1.02   -2.01    0.29   -0.43   -0.17    0.00    0.00      -1.30   -0.81   -0.32
#  23   -1.26   -1.47    0.16    2.82   -0.18    0.00    0.00       0.07    6.51   -0.41
#  24    8.02   -1.80    0.69   -7.50   -0.07    0.00    0.00      -0.65  -18.45   -0.17
#  25  -12.21   -2.41    0.63   12.89   -0.15    0.00    0.00      -1.25   28.00   -0.32
#  26   -9.71   -1.41    0.62   10.04   -0.18    0.00    0.00      -0.64   31.64   -0.56
#  27    0.20   -0.14    0.00    0.08   -0.02    0.00    0.00       0.11    1.32   -0.33
#  28    0.10   -0.17    0.01    0.10   -0.03    0.00    0.00       0.01    1.36   -0.44
#  29    0.01   -0.25    0.05    0.11   -0.04    0.00    0.00      -0.12    1.22   -0.47
#  30    0.01   -0.24    0.04    0.08   -0.04    0.00    0.00      -0.14    0.94   -0.47
#  31    0.10   -0.16    0.01    0.07   -0.03    0.00    0.00      -0.02    0.96   -0.47
#  32    0.24   -0.17    0.00    0.08   -0.03    0.00    0.00       0.13    1.10   -0.45
#  33    1.35   -0.78    0.72   -0.06   -0.14    0.00    0.00       1.09   -0.13   -0.28
#  34    0.46   -0.28    0.05   -0.03   -0.07    0.00    0.00       0.13   -0.12   -0.28
#  35   -0.03   -0.51    0.15   -0.06   -0.14    0.00    0.00      -0.60   -0.12   -0.28
#  36    0.50   -0.22    0.03   -0.04   -0.06    0.00    0.00       0.21   -0.18   -0.28
#  37    0.33   -0.91    0.66   -0.07   -0.12    0.00    0.00      -0.11   -0.18   -0.28
#  38   -0.21   -0.42    0.10   -0.06   -0.10    0.00    0.00      -0.69   -0.17   -0.28
#  39    0.09   -0.10    0.00   -0.02   -0.03    0.00    0.00      -0.05   -0.17   -0.28
#  40    0.16   -0.58    0.45   -0.11   -0.09    0.00    0.00      -0.16   -0.33   -0.28
#  41    0.10   -0.33    0.21   -0.07   -0.06    0.00    0.00      -0.15   -0.34   -0.28
#  42   -0.07   -0.01    0.00   -0.17    0.06    0.00    0.00      -0.19   -1.70    0.55
#  43    0.11   -0.04    0.00   -0.04   -0.01    0.00    0.00       0.02   -1.28   -0.26
#  44   -2.70    0.00    0.00   -0.26    0.02    0.00    0.00      -2.94   -4.28    0.37
#  45   -0.75   -0.21    0.02   -0.17   -0.06    0.00    0.00      -1.17   -0.81   -0.28
#  46   -0.54   -0.28    0.14   -0.17   -0.06    0.00    0.00      -0.91   -0.88   -0.28
#  47   -1.10   -0.12    0.00   -0.11   -0.03    0.00    0.00      -1.36   -0.87   -0.23
#  48   -1.30   -0.32    0.06   -0.57   -0.07    0.00    0.00      -2.20   -2.04   -0.26
#  49    0.40   -0.34    0.13   -0.18   -0.06    0.00    0.00      -0.05   -0.64   -0.21
#  50   -1.57   -0.35    0.05   -0.90   -0.07    0.00    0.00      -2.85   -2.61   -0.21
#  51   -0.42   -0.59    0.16   -1.18   -0.14    0.00    0.00      -2.17   -2.32   -0.28
#  52    1.47   -0.88    0.22   -1.56   -0.19    0.00    0.00      -0.94   -2.36   -0.28
#  53    0.93   -0.61    0.11   -1.11   -0.18    0.00    0.00      -0.86   -1.72   -0.28
#  54   -0.02   -0.04    0.00   -0.05   -0.01    0.00    0.00      -0.12   -1.17   -0.27
#  55   -0.01   -0.05    0.01   -0.07   -0.02    0.00    0.00      -0.14   -1.03   -0.28
#  56   -0.01   -0.05    0.01   -0.05   -0.02    0.00    0.00      -0.12   -0.82   -0.28
#  57   -0.04   -0.03    0.00   -0.02   -0.01    0.00    0.00      -0.09   -0.84   -0.28
#  58   -0.28   -0.04    0.00   -0.04   -0.01    0.00    0.00      -0.38   -1.09   -0.28

@<TRIPOS>MOLECULE
       AVX38673_0       100
   58    60     0     0     0



@<TRIPOS>ATOM
      1 C1          3.2084   -28.9029    -1.5859 C.3        1          -0.1528
      2 C2          2.3958   -27.8290    -2.3119 C.3        1          -0.1214
      3 C3          0.9209   -28.2350    -2.3364 C.3        1          -0.1331
      4 C4          0.1081   -27.1611    -3.0625 C.3        1           0.1189
      5 N1          0.2511   -25.8829    -2.3611 N.am       1          -0.7237
      6 C5         -0.6117   -25.5523    -1.3800 C.2        1           0.5209
      7 O1         -1.5065   -26.3133    -1.0777 O.2        1          -0.5312
      8 C6         -0.4645   -24.2376    -0.6584 C.3        1           0.1892
      9 N2          0.6821   -23.5069    -1.2040 N.am       1          -0.7311
     10 C7          1.7129   -23.1744    -0.4019 C.2        1           0.7086
     11 O2          1.6913   -23.4810     0.7744 O.2        1          -0.5748
     12 N3          2.7678   -22.5024    -0.9039 N.am       1          -0.6274
     13 C8          2.7939   -22.1331    -2.3214 C.3        1           0.0740
     14 C9          3.8883   -22.1410    -0.0321 C.3        1           0.1930
     15 C10         5.1531   -22.7759    -0.5505 C.ar       1          -0.0520
     16 C11         5.9439   -22.0995    -1.4524 C.ar       1          -0.1271
     17 C12         7.1083   -22.6756    -1.9336 C.ar       1          -0.1016
     18 C13         7.4909   -23.9383    -1.5136 C.ar       1          -0.0030
     19 O3          8.5717   -24.7090    -1.8331 O.3        1          -0.3190
     20 C14         8.6474   -25.7097    -0.8005 C.3        1           0.2046
     21 O4          7.2860   -25.8398    -0.3502 O.3        1          -0.2765
     22 C15         6.7025   -24.6357    -0.6019 C.ar       1           0.0781
     23 C16         5.5274   -24.0507    -0.1112 C.ar       1          -0.1195
     24 C17         4.6887   -24.7755     0.8571 C.2        1           0.5224
     25 O5          4.8851   -24.6417     2.0572 O.co2      1          -0.6799
     26 O6          3.7951   -25.5115     0.4618 O.co2      1          -0.6710
     27 C18        -1.7163   -23.4194    -0.8445 C.ar       1          -0.0958
     28 C19        -2.1088   -22.5245     0.1333 C.ar       1          -0.0945
     29 C20        -3.2571   -21.7742    -0.0374 C.ar       1          -0.1190
     30 C21        -4.0127   -21.9183    -1.1861 C.ar       1          -0.1156
     31 C22        -3.6196   -22.8124    -2.1642 C.ar       1          -0.1176
     32 C23        -2.4689   -23.5598    -1.9954 C.ar       1          -0.1023
     33 H1          4.2591   -28.6136    -1.5684 H          1           0.0553
     34 H2          2.8430   -29.0062    -0.5641 H          1           0.0548
     35 H3          3.1020   -29.8540    -2.1076 H          1           0.0544
     36 H4          2.5022   -26.8780    -1.7902 H          1           0.0654
     37 H5          2.7611   -27.7258    -3.3338 H          1           0.0649
     38 H6          0.8143   -29.1861    -2.8583 H          1           0.0703
     39 H7          0.5553   -28.3383    -1.3147 H          1           0.0705
     40 H8          0.4734   -27.0578    -4.0843 H          1           0.0693
     41 H9         -0.9427   -27.4505    -3.0798 H          1           0.0686
     42 H10         0.9667   -25.2744    -2.6031 H          1           0.4033
     43 H11        -0.3056   -24.4220     0.4040 H          1           0.1226
     44 H12         0.6994   -23.2623    -2.1426 H          1           0.4040
     45 H13         3.7186   -21.5993    -2.5409 H          1           0.0550
     46 H14         2.7407   -23.0340    -2.9326 H          1           0.0796
     47 H15         1.9420   -21.4911    -2.5453 H          1           0.0624
     48 H16         4.0044   -21.0573    -0.0200 H          1           0.1036
     49 H17         3.6913   -22.4967     0.9791 H          1           0.1181
     50 H18         5.6544   -21.1142    -1.7869 H          1           0.1264
     51 H19         7.7212   -22.1366    -2.6409 H          1           0.1234
     52 H20         9.0079   -26.6543    -1.2081 H          1           0.1232
     53 H21         9.2896   -25.3726     0.0133 H          1           0.0746
     54 H22        -1.5187   -22.4120     1.0307 H          1           0.1191
     55 H23        -3.5642   -21.0755     0.7268 H          1           0.1219
     56 H24        -4.9102   -21.3324    -1.3192 H          1           0.1212
     57 H25        -4.2100   -22.9253    -3.0615 H          1           0.1238
     58 H26        -2.1598   -24.2558    -2.7613 H          1           0.1247
@<TRIPOS>BOND
     1    1    2 1
     2    1   33 1
     3    1   34 1
     4    1   35 1
     5    2    3 1
     6    2   36 1
     7    2   37 1
     8    3    4 1
     9    3   38 1
    10    3   39 1
    11    4    5 1
    12    4   40 1
    13    4   41 1
    14    5    6 am
    15    5   42 1
    16    6    7 2
    17    6    8 1
    18    8    9 1
    19    8   27 1
    20    8   43 1
    21    9   10 am
    22    9   44 1
    23   10   11 2
    24   10   12 am
    25   12   13 1
    26   12   14 1
    27   13   45 1
    28   13   46 1
    29   13   47 1
    30   14   15 1
    31   14   48 1
    32   14   49 1
    33   15   23 ar
    34   15   16 ar
    35   16   17 ar
    36   16   50 1
    37   17   18 ar
    38   17   51 1
    39   18   22 ar
    40   18   19 1
    41   19   20 1
    42   20   21 1
    43   20   52 1
    44   20   53 1
    45   21   22 1
    46   22   23 ar
    47   23   24 1
    48   24   25 1
    49   24   26 2
    50   27   32 ar
    51   27   28 ar
    52   28   29 ar
    53   28   54 1
    54   29   30 ar
    55   29   55 1
    56   30   31 ar
    57   30   56 1
    58   31   32 ar
    59   31   57 1
    60   32   58 1
