AVX38672_0, 3
##########                 Name:           AVX38672_0
##########          Protonation:                  100
##########               SMILES:   CC(C)(C)NC(=O)[C@H](c1ccccc1)NC(=O)N(C)Cc2ccc3c(c2C(=O)[O-])OCO3
##########            Long Name:   1-phenyl-ethyl]carbamoyl-methyl-amino]methyl]-1,3-benzodioxole-4-carboxylate
##########          FlexRecCode: 1
##########               Number:                   49
##########   Ligand Source File: /raid1/people/rgc/Examples/sampl4/screening/ligands/build_1//sampl4-hivint-00000
##########           GlobalRank: 105
##########                 Rank:                    1
##########               Setnum:                    3
##########             Matchnum:                24867
##########                Cloud:                    1
##########        Electrostatic:           -15.770944
##########        Van der Waals:           -23.386869
##########  Ligand Polar Desolv:            18.326630
########## Ligand Apolar Desolv:            -2.066123
##########      Internal Energy:             0.000000
##########      Receptor Energy: 0.0
########## Receptor Desolvation:             0.000000
########## Receptor Hydrophobic:             0.000000
##########         Total Energy: -22.9
##########        Ligand Charge:            -1.000000
##########            Arbitrary:    +999.9990
##########     heavy atom count:   32
##########           pose count:    1
##########        Ligand Energy:             0.000000
# num electro vdwattr vdwrepu polsolv apolsol rdesolv rhydroe totalscore fullpol fullapo
#   1   -0.82   -0.43    0.03   -0.15   -0.12    0.00    0.00      -1.49   -0.66   -0.51
#   2    3.58   -0.44    0.01    1.76    0.20    0.00    0.00       5.10   10.49    1.19
#   3   -0.42   -0.62    0.13   -1.46   -0.08    0.00    0.00      -2.46   -5.47   -0.31
#   4    0.08   -1.00    0.07    0.44   -0.14    0.00    0.00      -0.54    1.31   -0.41
#   5    1.13   -1.51    0.24    0.56   -0.17    0.00    0.00       0.25    1.40   -0.42
#   6    0.57   -2.33    0.64    0.27   -0.23    0.00    0.00      -1.08    0.56   -0.47
#   7   -0.01   -2.30    0.60   -0.13   -0.16    0.00    0.00      -2.01   -0.26   -0.33
#   8   -1.97   -2.27    0.50    2.82    0.31    0.00    0.00      -0.61    4.80    0.52
#   9    2.41   -1.62    0.24   -1.90    0.01    0.00    0.00      -0.86   -2.97    0.02
#  10   -4.35   -2.08    0.42    5.09    0.19    0.00    0.00      -0.73    9.21    0.34
#  11    0.75   -1.78    0.35   -0.37   -0.14    0.00    0.00      -1.18   -0.81   -0.32
#  12   -0.90   -1.13    0.11    2.36   -0.15    0.00    0.00       0.29    6.42   -0.41
#  13    6.44   -1.19    0.25   -6.04   -0.06    0.00    0.00      -0.59  -18.37   -0.17
#  14  -10.58   -1.59    0.45   10.58   -0.12    0.00    0.00      -1.27   28.00   -0.33
#  15   -7.20   -0.83    0.10    8.11   -0.15    0.00    0.00       0.04   31.30   -0.56
#  16   -2.51   -0.32    0.01   -1.45   -0.23    0.00    0.00      -4.49  -12.09   -1.92
#  17    0.85   -0.41    0.06    1.90    0.05    0.00    0.00       2.45   14.70    0.37
#  18    2.44   -0.22    0.00    0.74    0.15    0.00    0.00       3.11    8.50    1.69
#  19   -0.26   -0.09    0.00   -0.10   -0.01    0.00    0.00      -0.46   -2.01   -0.25
#  20    0.30   -0.11    0.00   -0.23   -0.02    0.00    0.00      -0.07   -5.08   -0.55
#  21   -0.37   -0.06    0.00    0.23    0.01    0.00    0.00      -0.19    6.86    0.29
#  22   -1.24   -0.17    0.00    0.28    0.13    0.00    0.00      -1.00    4.31    1.96
#  23    0.31   -0.11    0.00   -0.06   -0.01    0.00    0.00       0.14   -0.84   -0.12
#  24   -0.17   -0.13    0.00    0.08   -0.01    0.00    0.00      -0.23    1.10   -0.16
#  25   -0.63   -0.27    0.02    0.04   -0.02    0.00    0.00      -0.87    0.25   -0.17
#  26   -0.18   -0.08    0.00    0.04   -0.01    0.00    0.00      -0.23    0.90   -0.16
#  27    0.14   -0.18    0.00    0.08   -0.03    0.00    0.00       0.02    1.11   -0.33
#  28    0.01   -0.13    0.00    0.06   -0.02    0.00    0.00      -0.08    1.07   -0.44
#  29   -0.04   -0.20    0.01    0.07   -0.04    0.00    0.00      -0.20    0.87   -0.47
#  30   -0.06   -0.65    0.19    0.11   -0.07    0.00    0.00      -0.48    0.72   -0.47
#  31    0.06   -1.06    0.55    0.16   -0.09    0.00    0.00      -0.38    0.80   -0.47
#  32    0.20   -0.44    0.04    0.15   -0.07    0.00    0.00      -0.12    1.00   -0.45
#  33   -0.69   -0.11    0.00   -0.09   -0.03    0.00    0.00      -0.91   -0.82   -0.28
#  34   -1.09   -0.14    0.00   -0.14   -0.03    0.00    0.00      -1.40   -0.96   -0.22
#  35   -0.43   -0.26    0.13   -0.17   -0.05    0.00    0.00      -0.79   -0.90   -0.28
#  36   -0.92   -0.25    0.04   -0.21   -0.05    0.00    0.00      -1.38   -0.89   -0.23
#  37    0.67   -0.39    0.44   -0.37   -0.05    0.00    0.00       0.30   -1.82   -0.24
#  38   -2.29   -0.28    0.04   -0.61   -0.05    0.00    0.00      -3.20   -2.62   -0.21
#  39   -1.36   -0.59    0.18   -1.07   -0.13    0.00    0.00      -2.97   -2.31   -0.28
#  40    1.41   -0.68    0.17   -1.42   -0.17    0.00    0.00      -0.69   -2.37   -0.28
#  41    0.95   -0.55    0.18   -0.90   -0.15    0.00    0.00      -0.47   -1.65   -0.28
#  42   -1.64    0.00    0.00   -0.23    0.02    0.00    0.00      -1.85   -4.31    0.37
#  43   -0.15   -0.02    0.00   -0.03   -0.01    0.00    0.00      -0.21   -1.21   -0.26
#  44    0.96    0.00    0.00   -0.07    0.02    0.00    0.00       0.91   -1.76    0.55
#  45    0.05   -0.04    0.00   -0.01   -0.01    0.00    0.00      -0.01   -0.37   -0.28
#  46    0.06   -0.02    0.00   -0.01   -0.01    0.00    0.00       0.01   -0.48   -0.28
#  47    0.06   -0.06    0.00   -0.01   -0.01    0.00    0.00      -0.03   -0.24   -0.22
#  48    0.12   -0.08    0.00   -0.01   -0.02    0.00    0.00       0.01   -0.11   -0.28
#  49    0.41   -0.10    0.01   -0.01   -0.03    0.00    0.00       0.28   -0.11   -0.28
#  50    0.40   -0.10    0.01   -0.01   -0.03    0.00    0.00       0.26   -0.13   -0.28
#  51    0.09   -0.02    0.00   -0.01   -0.01    0.00    0.00       0.06   -0.24   -0.22
#  52    0.09   -0.04    0.00   -0.02   -0.01    0.00    0.00       0.02   -0.40   -0.28
#  53    0.05   -0.01    0.00   -0.01    0.00    0.00    0.00       0.03   -0.33   -0.28
#  54    0.03   -0.01    0.00   -0.01    0.00    0.00    0.00       0.00   -0.93   -0.27
#  55    0.04   -0.02    0.00   -0.01    0.00    0.00    0.00       0.00   -0.71   -0.28
#  56    0.09   -0.17    0.05   -0.08   -0.04    0.00    0.00      -0.15   -0.58   -0.28
#  57    0.09   -0.47    0.58   -0.15   -0.06    0.00    0.00      -0.01   -0.68   -0.28
#  58   -0.30   -0.09    0.00   -0.08   -0.02    0.00    0.00      -0.48   -0.97   -0.28

@<TRIPOS>MOLECULE
       AVX38672_0       100
   58    60     0     0     0



@<TRIPOS>ATOM
      1 C1          2.1261   -22.3727    -2.3254 C.3        1           0.0769
      2 N1          1.7788   -22.5086    -0.9087 N.am       1          -0.6275
      3 C2          2.7834   -22.2332     0.1215 C.3        1           0.1940
      4 C3          4.1545   -22.5541    -0.4154 C.ar       1          -0.0518
      5 C4          4.8882   -21.5811    -1.0568 C.ar       1          -0.1211
      6 C5          6.1496   -21.8675    -1.5529 C.ar       1          -0.1017
      7 C6          6.6878   -23.1352    -1.4100 C.ar       1          -0.0028
      8 O1          7.8857   -23.6592    -1.8033 O.3        1          -0.3193
      9 C7          8.0477   -24.8653    -1.0335 C.3        1           0.2047
     10 O2          6.6963   -25.2749    -0.7518 O.3        1          -0.2769
     11 C8          5.9588   -24.1305    -0.7640 C.ar       1           0.0772
     12 C9          4.6851   -23.8394    -0.2574 C.ar       1          -0.1202
     13 C10         3.9073   -24.8812     0.4323 C.2        1           0.5221
     14 O3          4.0136   -25.0233     1.6427 O.co2      1          -0.6799
     15 O4          3.1544   -25.6051    -0.2048 O.co2      1          -0.6711
     16 C11         0.5352   -22.8871    -0.5530 C.2        1           0.7080
     17 O5          0.0601   -22.5032     0.4984 O.2        1          -0.5763
     18 N2         -0.1821   -23.6909    -1.3628 N.am       1          -0.7306
     19 C12        -1.5340   -24.1024    -0.9763 C.3        1           0.1879
     20 C13        -1.4626   -25.3834    -0.1858 C.2        1           0.5245
     21 O6         -2.4794   -25.8960     0.2314 O.2        1          -0.5262
     22 N3         -0.2687   -25.9594     0.0572 N.am       1          -0.7163
     23 C14        -0.1991   -27.2048     0.8256 C.3        1           0.1695
     24 C15        -0.9951   -28.2943     0.1041 C.3        1          -0.1653
     25 C16         1.2611   -27.6423     0.9568 C.3        1          -0.1560
     26 C17        -0.7908   -26.9786     2.2184 C.3        1          -0.1633
     27 C18        -2.3656   -24.3212    -2.2138 C.ar       1          -0.0942
     28 C19        -3.7292   -24.0979    -2.1786 C.ar       1          -0.0950
     29 C20        -4.4920   -24.2987    -3.3139 C.ar       1          -0.1185
     30 C21        -3.8910   -24.7222    -4.4845 C.ar       1          -0.1158
     31 C22        -2.5272   -24.9445    -4.5199 C.ar       1          -0.1174
     32 C23        -1.7637   -24.7396    -3.3858 C.ar       1          -0.1025
     33 H1          1.2578   -22.6170    -2.9375 H          1           0.0572
     34 H2          2.4355   -21.3470    -2.5268 H          1           0.0602
     35 H3          2.9433   -23.0525    -2.5661 H          1           0.0774
     36 H4          2.7394   -21.1803     0.3996 H          1           0.1137
     37 H5          2.5832   -22.8493     0.9982 H          1           0.1065
     38 H6          4.4777   -20.5891    -1.1741 H          1           0.1243
     39 H7          6.7167   -21.0973    -2.0546 H          1           0.1223
     40 H8          8.5646   -25.6263    -1.6182 H          1           0.1233
     41 H9          8.5865   -24.6600    -0.1086 H          1           0.0744
     42 H10         0.1969   -23.9972    -2.2016 H          1           0.4043
     43 H11        -1.9900   -23.3233    -0.3652 H          1           0.1213
     44 H12         0.5446   -25.5494    -0.2764 H          1           0.4014
     45 H13        -0.9434   -29.2209     0.6757 H          1           0.0550
     46 H14        -2.0355   -27.9825     0.0108 H          1           0.0626
     47 H15        -0.5736   -28.4555    -0.8880 H          1           0.0793
     48 H16         1.3129   -28.5689     1.5284 H          1           0.0625
     49 H17         1.6826   -27.8036    -0.0355 H          1           0.0736
     50 H18         1.8283   -26.8662     1.4706 H          1           0.0629
     51 H19        -0.7391   -27.9052     2.7901 H          1           0.0785
     52 H20        -0.2237   -26.2024     2.7322 H          1           0.0621
     53 H21        -1.8311   -26.6669     2.1248 H          1           0.0542
     54 H22        -4.1989   -23.7671    -1.2641 H          1           0.1183
     55 H23        -5.5576   -24.1249    -3.2862 H          1           0.1215
     56 H24        -4.4870   -24.8797    -5.3712 H          1           0.1206
     57 H25        -2.0575   -25.2757    -5.4344 H          1           0.1231
     58 H26        -0.6975   -24.9097    -3.4146 H          1           0.1241
@<TRIPOS>BOND
     1    1    2 1
     2    1   33 1
     3    1   34 1
     4    1   35 1
     5    2    3 1
     6    2   16 am
     7    3    4 1
     8    3   36 1
     9    3   37 1
    10    4   12 ar
    11    4    5 ar
    12    5    6 ar
    13    5   38 1
    14    6    7 ar
    15    6   39 1
    16    7   11 ar
    17    7    8 1
    18    8    9 1
    19    9   10 1
    20    9   40 1
    21    9   41 1
    22   10   11 1
    23   11   12 ar
    24   12   13 1
    25   13   14 1
    26   13   15 2
    27   16   17 2
    28   16   18 am
    29   18   19 1
    30   18   42 1
    31   19   20 1
    32   19   27 1
    33   19   43 1
    34   20   21 2
    35   20   22 am
    36   22   23 1
    37   22   44 1
    38   23   24 1
    39   23   25 1
    40   23   26 1
    41   24   45 1
    42   24   46 1
    43   24   47 1
    44   25   48 1
    45   25   49 1
    46   25   50 1
    47   26   51 1
    48   26   52 1
    49   26   53 1
    50   27   32 ar
    51   27   28 ar
    52   28   29 ar
    53   28   54 1
    54   29   30 ar
    55   29   55 1
    56   30   31 ar
    57   30   56 1
    58   31   32 ar
    59   31   57 1
    60   32   58 1
