AVX40812_0, 3
##########                 Name:           AVX40812_0
##########          Protonation:                  100
##########               SMILES:   CC(C)C[C@@H](Cc1ccc2c(c1C(=O)[O-])OCO2)CNC(=O)Cc3c[nH]c4c3cccc4
##########            Long Name:   ol-3-yl)acetyl]amino]methyl]-4-methyl-pentyl]-1,3-benzodioxole-4-carboxylate
##########          FlexRecCode: 1
##########               Number:                   46
##########   Ligand Source File: /raid1/people/rgc/Examples/sampl4/screening/ligands/build_1//sampl4-hivint-00000
##########           GlobalRank: 47
##########                 Rank:                    1
##########               Setnum:                  127
##########             Matchnum:                20631
##########                Cloud:                    1
##########        Electrostatic:           -20.391964
##########        Van der Waals:           -32.283306
##########  Ligand Polar Desolv:            25.151535
########## Ligand Apolar Desolv:            -3.008549
##########      Internal Energy:             0.000000
##########      Receptor Energy: 0.0
########## Receptor Desolvation:             0.000000
########## Receptor Hydrophobic:             0.000000
##########         Total Energy: -30.53
##########        Ligand Charge:            -1.000000
##########            Arbitrary:    +999.9990
##########     heavy atom count:   32
##########           pose count:    1
##########        Ligand Energy:             0.000000
# num electro vdwattr vdwrepu polsolv apolsol rdesolv rhydroe totalscore fullpol fullapo
#   1    3.89   -0.90    0.12    0.36   -0.07    0.00    0.00       3.41    0.99   -0.18
#   2    1.46   -0.85    0.19    0.35   -0.04    0.00    0.00       1.10    1.18   -0.15
#   3    1.34   -0.62    0.08    0.56   -0.04    0.00    0.00       1.31    2.06   -0.16
#   4    0.73   -0.44    0.07    0.24   -0.03    0.00    0.00       0.56    1.24   -0.17
#   5    0.56   -0.40    0.02    0.26   -0.02    0.00    0.00       0.42    1.15   -0.08
#   6   -0.27   -0.34    0.02   -0.50   -0.06    0.00    0.00      -1.15   -2.85   -0.37
#   7   -2.39   -0.42    0.02    1.89    0.25    0.00    0.00      -0.65   11.44    1.51
#   8    0.94   -0.25    0.01   -0.81   -0.07    0.00    0.00      -0.18   -8.02   -0.66
#   9    0.28   -0.17    0.00    1.01    0.03    0.00    0.00       1.15   12.71    0.38
#  10   -0.18   -0.14    0.00    0.05   -0.02    0.00    0.00      -0.29    0.56   -0.27
#  11   -0.46   -0.27    0.01    0.27   -0.03    0.00    0.00      -0.49    2.62   -0.33
#  12    0.14   -0.39    0.01   -0.10   -0.15    0.00    0.00      -0.49   -0.65   -0.99
#  13   -0.49   -0.69    0.03    1.44    0.32    0.00    0.00       0.61    5.30    1.17
#  14    0.20   -0.72    0.05   -0.14   -0.20    0.00    0.00      -0.81   -0.57   -0.78
#  15   -0.17   -1.45    0.31    0.41   -0.16    0.00    0.00      -1.07    1.23   -0.48
#  16   -0.16   -1.35    0.34    0.27   -0.14    0.00    0.00      -1.05    0.88   -0.47
#  17   -0.28   -0.87    0.14    0.33   -0.11    0.00    0.00      -0.79    1.41   -0.47
#  18   -0.12   -0.59    0.08    0.23   -0.08    0.00    0.00      -0.48    1.35   -0.47
#  19   -0.23   -0.46    0.04    0.30   -0.07    0.00    0.00      -0.43    1.92   -0.44
#  20    0.10   -0.88    0.18    0.41   -0.05    0.00    0.00      -0.24    1.27   -0.17
#  21   -0.01   -1.30    0.14    0.22   -0.12    0.00    0.00      -1.07    0.58   -0.31
#  22    0.86   -1.66    0.27    0.47   -0.17    0.00    0.00      -0.23    1.10   -0.40
#  23    0.23   -2.43    0.67    0.26   -0.23    0.00    0.00      -1.51    0.52   -0.47
#  24   -0.03   -2.49    0.67    0.05   -0.17    0.00    0.00      -1.98    0.09   -0.33
#  25   -2.41   -2.58    0.69    3.18    0.33    0.00    0.00      -0.78    4.97    0.52
#  26    2.35   -1.75    0.25   -2.04    0.01    0.00    0.00      -1.18   -3.07    0.02
#  27   -4.53   -2.17    0.41    5.78    0.21    0.00    0.00      -0.31    9.40    0.34
#  28    0.87   -1.87    0.24   -0.18   -0.16    0.00    0.00      -1.10   -0.36   -0.32
#  29   -1.23   -1.48    0.17    2.59   -0.18    0.00    0.00      -0.13    5.96   -0.41
#  30    8.36   -1.99    0.62   -7.45   -0.07    0.00    0.00      -0.53  -17.44   -0.16
#  31  -12.78   -3.42    1.67   12.55   -0.15    0.00    0.00      -2.12   25.07   -0.29
#  32  -10.90   -1.90    1.49   11.24   -0.20    0.00    0.00      -0.27   31.70   -0.56
#  33   -1.39   -0.23    0.02   -0.11   -0.06    0.00    0.00      -1.77   -0.54   -0.28
#  34   -1.38   -0.28    0.05   -0.12   -0.07    0.00    0.00      -1.80   -0.50   -0.28
#  35   -1.81   -0.44    0.14   -0.14   -0.10    0.00    0.00      -2.36   -0.39   -0.28
#  36   -0.81   -0.67    0.48   -0.31   -0.05    0.00    0.00      -1.36   -0.98   -0.17
#  37   -0.11   -0.22    0.07   -0.08   -0.04    0.00    0.00      -0.38   -0.51   -0.28
#  38   -0.80   -0.22    0.02   -0.02   -0.04    0.00    0.00      -1.05   -0.07   -0.19
#  39   -0.40   -0.16    0.03   -0.15   -0.04    0.00    0.00      -0.72   -1.04   -0.28
#  40    0.02   -0.22    0.14   -0.10   -0.03    0.00    0.00      -0.19   -0.74   -0.21
#  41   -0.52   -0.07    0.00   -0.06   -0.02    0.00    0.00      -0.68   -1.07   -0.28
#  42   -1.45   -0.11    0.00   -0.04   -0.01    0.00    0.00      -1.62   -0.53   -0.16
#  43   -0.38   -0.07    0.00    0.01   -0.02    0.00    0.00      -0.47    0.14   -0.28
#  44    0.01   -0.22    0.10   -0.23   -0.05    0.00    0.00      -0.39   -1.38   -0.28
#  45    2.90   -0.01    0.00   -0.65    0.03    0.00    0.00       2.28   -6.00    0.32
#  46    0.34   -0.06    0.00   -0.08   -0.02    0.00    0.00       0.18   -1.19   -0.28
#  47    0.14   -0.02    0.00   -0.03   -0.01    0.00    0.00       0.08   -1.23   -0.28
#  48    0.26   -0.08    0.00   -0.12   -0.02    0.00    0.00       0.04   -1.57   -0.28
#  49   -1.23   -0.02    0.00   -0.59    0.14    0.00    0.00      -1.70   -2.46    0.59
#  50    0.05   -0.79    1.00   -0.34   -0.10    0.00    0.00      -0.19   -0.94   -0.28
#  51    0.17   -0.41    0.24   -0.23   -0.08    0.00    0.00      -0.32   -0.80   -0.28
#  52    0.23   -0.14    0.01   -0.16   -0.04    0.00    0.00      -0.10   -1.03   -0.28
#  53    0.25   -0.08    0.00   -0.11   -0.02    0.00    0.00       0.04   -1.31   -0.28
#  54   -0.44   -0.49    0.16   -0.69   -0.10    0.00    0.00      -1.56   -1.95   -0.28
#  55    0.79   -0.43    0.46   -0.14   -0.05    0.00    0.00       0.62   -0.56   -0.21
#  56   -1.90   -0.26    0.02   -0.50   -0.07    0.00    0.00      -2.72   -1.89   -0.28
#  57   -0.74   -0.53    0.14   -0.91   -0.14    0.00    0.00      -2.18   -1.84   -0.28
#  58    1.32   -0.74    0.17   -1.50   -0.18    0.00    0.00      -0.92   -2.33   -0.28
#  59    0.85   -0.67    0.37   -0.92   -0.16    0.00    0.00      -0.53   -1.60   -0.28

@<TRIPOS>MOLECULE
       AVX40812_0       100
   59    62     0     0     0



@<TRIPOS>ATOM
      1 C1          1.8189   -19.1754    -0.3989 C.3        1          -0.1431
      2 C2          1.4179   -20.1602     0.7011 C.3        1          -0.1157
      3 C3          0.1478   -19.6622     1.3936 C.3        1          -0.1599
      4 C4          1.1564   -21.5356     0.0837 C.3        1          -0.1154
      5 C5          2.4266   -22.0336    -0.6087 C.3        1          -0.0821
      6 C6          2.1652   -23.4088    -1.2261 C.3        1           0.1328
      7 N1          1.7814   -24.3520    -0.1730 N.am       1          -0.7247
      8 C7          0.5817   -24.9644    -0.2212 C.2        1           0.5054
      9 O1         -0.1800   -24.7345    -1.1366 O.2        1          -0.5358
     10 C8          0.1868   -25.9345     0.8623 C.3        1          -0.0687
     11 C9          0.6290   -27.3231     0.4788 C.2        1          -0.1475
     12 C10         0.4909   -27.9012    -0.7248 C.2        1           0.0632
     13 N2          1.0108   -29.1666    -0.6971 N.pl3      1          -0.5951
     14 C11         1.5087   -29.4406     0.5571 C.ar       1           0.0946
     15 C12         2.1314   -30.5505     1.1190 C.ar       1          -0.1322
     16 C13         2.5265   -30.5186     2.4382 C.ar       1          -0.1030
     17 C14         2.3097   -29.3886     3.2151 C.ar       1          -0.1494
     18 C15         1.7000   -28.2876     2.6836 C.ar       1          -0.0663
     19 C16         1.2967   -28.2960     1.3468 C.ar       1          -0.0878
     20 C17         3.5574   -22.1414     0.4164 C.3        1          -0.0622
     21 C18         4.8085   -22.6320    -0.2656 C.ar       1          -0.0308
     22 C19         5.3652   -21.9019    -1.2920 C.ar       1          -0.1340
     23 C20         6.5155   -22.3455    -1.9240 C.ar       1          -0.1030
     24 C21         7.1192   -23.5280    -1.5315 C.ar       1          -0.0052
     25 O2          8.2365   -24.1678    -1.9862 O.3        1          -0.3198
     26 C22         8.5916   -25.1021    -0.9496 C.3        1           0.2050
     27 O3          7.3380   -25.3848    -0.3002 O.3        1          -0.2782
     28 C23         6.5690   -24.2782    -0.4952 C.ar       1           0.0754
     29 C24         5.4086   -23.8268     0.1477 C.ar       1          -0.1228
     30 C25         4.8208   -24.6080     1.2479 C.2        1           0.5212
     31 O4          5.1668   -24.3954     2.4019 O.co2      1          -0.6699
     32 O5          3.9864   -25.4699     1.0084 O.co2      1          -0.6747
     33 H1          2.7237   -19.5303    -0.8922 H          1           0.0489
     34 H2          1.0132   -19.0984    -1.1291 H          1           0.0501
     35 H3          2.0053   -18.1955     0.0409 H          1           0.0512
     36 H4          2.2236   -20.2371     1.4313 H          1           0.0839
     37 H5         -0.1378   -20.3640     2.1773 H          1           0.0565
     38 H6          0.3341   -18.6825     1.8335 H          1           0.0647
     39 H7         -0.6578   -19.5854     0.6634 H          1           0.0503
     40 H8          0.8708   -22.2373     0.8674 H          1           0.0658
     41 H9          0.3508   -21.4588    -0.6465 H          1           0.0564
     42 H10         2.7123   -21.3319    -1.3923 H          1           0.1010
     43 H11         1.3597   -23.3320    -1.9564 H          1           0.0714
     44 H12         3.0702   -23.7636    -1.7195 H          1           0.0602
     45 H13         2.3906   -24.5358     0.5591 H          1           0.4020
     46 H14         0.6642   -25.6469     1.7990 H          1           0.0971
     47 H15        -0.8959   -25.9193     0.9867 H          1           0.0994
     48 H16         0.0364   -27.4365    -1.5873 H          1           0.1696
     49 H17         1.0263   -29.7794    -1.4488 H          1           0.4146
     50 H18         2.3042   -31.4345     0.5229 H          1           0.1166
     51 H19         3.0093   -31.3814     2.8726 H          1           0.1217
     52 H20         2.6254   -29.3801     4.2480 H          1           0.1196
     53 H21         1.5347   -27.4121     3.2940 H          1           0.1182
     54 H22         3.7437   -21.1617     0.8563 H          1           0.0499
     55 H23         3.2717   -22.8432     1.2001 H          1           0.1118
     56 H24         4.9020   -20.9782    -1.6064 H          1           0.1282
     57 H25         6.9438   -21.7654    -2.7281 H          1           0.1234
     58 H26         9.0131   -26.0102    -1.3804 H          1           0.1226
     59 H27         9.2924   -24.6485    -0.2487 H          1           0.0744
@<TRIPOS>BOND
     1    1    2 1
     2    1   33 1
     3    1   34 1
     4    1   35 1
     5    2    3 1
     6    2    4 1
     7    2   36 1
     8    3   37 1
     9    3   38 1
    10    3   39 1
    11    4    5 1
    12    4   40 1
    13    4   41 1
    14    5    6 1
    15    5   20 1
    16    5   42 1
    17    6    7 1
    18    6   43 1
    19    6   44 1
    20    7    8 am
    21    7   45 1
    22    8    9 2
    23    8   10 1
    24   10   11 1
    25   10   46 1
    26   10   47 1
    27   11   19 1
    28   11   12 2
    29   12   13 1
    30   12   48 1
    31   13   14 1
    32   13   49 1
    33   14   19 ar
    34   14   15 ar
    35   15   16 ar
    36   15   50 1
    37   16   17 ar
    38   16   51 1
    39   17   18 ar
    40   17   52 1
    41   18   19 ar
    42   18   53 1
    43   20   21 1
    44   20   54 1
    45   20   55 1
    46   21   29 ar
    47   21   22 ar
    48   22   23 ar
    49   22   56 1
    50   23   24 ar
    51   23   57 1
    52   24   28 ar
    53   24   25 1
    54   25   26 1
    55   26   27 1
    56   26   58 1
    57   26   59 1
    58   27   28 1
    59   28   29 ar
    60   29   30 1
    61   30   31 1
    62   30   32 2
