AVX40911_0, 3
##########                 Name:           AVX40911_0
##########          Protonation:                  100
##########               SMILES:   c1ccc(cc1)/C=C/c2ccc3c(c2C(=O)[O-])OCO3
##########            Long Name:   5-[(E)-styryl]-1,3-benzodioxole-4-carboxylate
##########          FlexRecCode: 1
##########               Number:                  358
##########   Ligand Source File: /raid1/people/rgc/Examples/sampl4/screening/ligands/build_1//sampl4-hivint-00000
##########           GlobalRank: 102
##########                 Rank:                    1
##########               Setnum:                    3
##########             Matchnum:                 3875
##########                Cloud:                    1
##########        Electrostatic:           -22.294796
##########        Van der Waals:           -27.772699
##########  Ligand Polar Desolv:            29.320976
########## Ligand Apolar Desolv:            -2.638976
##########      Internal Energy:             0.000000
##########      Receptor Energy: 0.0
########## Receptor Desolvation:             0.000000
########## Receptor Hydrophobic:             0.000000
##########         Total Energy: -23.39
##########        Ligand Charge:            -1.000000
##########            Arbitrary:    +999.9990
##########     heavy atom count:   20
##########           pose count:    1
##########        Ligand Energy:             0.000000
# num electro vdwattr vdwrepu polsolv apolsol rdesolv rhydroe totalscore fullpol fullapo
#   1  -13.71   -3.44    1.68   16.61   -0.21    0.00    0.00       0.94   32.95   -0.41
#   2    8.86   -2.17    0.81   -9.45   -0.06    0.00    0.00      -2.01  -20.80   -0.13
#   3  -11.90   -2.37    2.40   12.52   -0.15    0.00    0.00       0.49   33.59   -0.41
#   4   -0.75   -1.69    0.19    2.98   -0.19    0.00    0.00       0.55    6.39   -0.40
#   5    0.54   -2.15    0.31    0.19   -0.19    0.00    0.00      -1.31    0.32   -0.33
#   6   -4.73   -2.37    0.40    6.61    0.32    0.00    0.00       0.23   10.04    0.48
#   7    2.15   -2.17    0.40   -2.10    0.01    0.00    0.00      -1.71   -3.04    0.02
#   8   -2.05   -3.01    0.79    3.29    0.37    0.00    0.00      -0.60    4.66    0.53
#   9    0.19   -2.81    0.83   -0.26   -0.20    0.00    0.00      -2.25   -0.44   -0.33
#  10   -0.01   -3.14    1.28    0.27   -0.26    0.00    0.00      -1.86    0.49   -0.47
#  11    0.41   -2.44    0.71    0.44   -0.22    0.00    0.00      -1.10    0.89   -0.44
#  12   -0.06   -1.68    0.27    0.41   -0.17    0.00    0.00      -1.24    0.97   -0.40
#  13    0.19   -1.32    0.17    1.63   -0.15    0.00    0.00       0.52    4.52   -0.41
#  14    0.61   -0.72    0.04    0.03   -0.11    0.00    0.00      -0.14    0.13   -0.42
#  15    0.23   -0.69    0.09    0.39   -0.09    0.00    0.00      -0.07    1.83   -0.41
#  16    1.10   -1.54    0.59    0.89   -0.12    0.00    0.00       0.92    3.18   -0.44
#  17    1.04   -1.23    0.35    0.58   -0.13    0.00    0.00       0.61    2.10   -0.47
#  18    0.67   -0.59    0.07    0.17   -0.09    0.00    0.00       0.23    0.85   -0.47
#  19    0.55   -0.35    0.02    0.10   -0.06    0.00    0.00       0.26    0.74   -0.47
#  20    0.59   -0.38    0.02    0.08   -0.06    0.00    0.00       0.25    0.61   -0.45
#  21    1.32   -0.74    0.23   -1.45   -0.18    0.00    0.00      -0.82   -2.29   -0.28
#  22    0.68   -1.12    0.59   -1.12   -0.19    0.00    0.00      -1.17   -1.66   -0.28
#  23   -0.48   -0.65    0.23   -0.97   -0.15    0.00    0.00      -2.03   -1.79   -0.28
#  24   -1.60   -0.41    0.07   -0.77   -0.09    0.00    0.00      -2.80   -1.94   -0.22
#  25   -0.89   -0.49    0.15   -0.39   -0.07    0.00    0.00      -1.68   -1.07   -0.18
#  26   -0.35   -0.16    0.03   -0.30   -0.03    0.00    0.00      -0.81   -2.00   -0.22
#  27   -2.18   -0.60    0.33   -0.46   -0.07    0.00    0.00      -2.97   -1.42   -0.21
#  28   -1.58   -0.29    0.05   -0.43   -0.07    0.00    0.00      -2.31   -1.79   -0.28
#  29   -0.33   -0.09    0.01   -0.09   -0.03    0.00    0.00      -0.53   -1.04   -0.28
#  30   -0.35   -0.04    0.00   -0.02   -0.01    0.00    0.00      -0.42   -0.65   -0.28
#  31   -0.46   -0.05    0.00   -0.04   -0.01    0.00    0.00      -0.56   -0.95   -0.28

@<TRIPOS>MOLECULE
       AVX40911_0       100
   31    33     0     0     0



@<TRIPOS>ATOM
      1 O1          5.5726   -24.5002     2.0395 O.co2      1          -0.6759
      2 C1          5.3372   -24.7064     0.8563 C.2        1           0.5308
      3 O2          4.4667   -25.5047     0.5355 O.co2      1          -0.6764
      4 C2          6.0949   -23.9918    -0.1780 C.ar       1          -0.0694
      5 C3          7.2754   -24.5390    -0.6928 C.ar       1           0.0439
      6 O3          7.9405   -25.6937    -0.4242 O.3        1          -0.2976
      7 C4          9.2824   -25.5125    -0.9007 C.3        1           0.2104
      8 O4          9.0821   -24.6020    -1.9920 O.3        1          -0.3153
      9 C5          7.9880   -23.8528    -1.6747 C.ar       1           0.0266
     10 C6          7.5315   -22.6307    -2.1436 C.ar       1          -0.1175
     11 C7          6.3685   -22.0775    -1.6464 C.ar       1          -0.1037
     12 C8          5.6351   -22.7469    -0.6671 C.ar       1          -0.0470
     13 C9          4.3937   -22.1598    -0.1429 C.2        1          -0.0556
     14 C10         3.2166   -22.4409    -0.7299 C.2        1          -0.1438
     15 C11         1.9726   -21.8526    -0.2045 C.ar       1          -0.0379
     16 C12         2.0207   -20.7112     0.6010 C.ar       1          -0.1148
     17 C13         0.8518   -20.1661     1.0892 C.ar       1          -0.1155
     18 C14        -0.3668   -20.7465     0.7837 C.ar       1          -0.1314
     19 C15        -0.4226   -21.8766    -0.0132 C.ar       1          -0.1229
     20 C16         0.7375   -22.4295    -0.5138 C.ar       1          -0.1172
     21 H1          9.9130   -25.0670    -0.1313 H          1           0.1263
     22 H2          9.7028   -26.4552    -1.2511 H          1           0.0787
     23 H3          8.0908   -22.1065    -2.9043 H          1           0.1299
     24 H4          6.0235   -21.1246    -2.0196 H          1           0.1360
     25 H5          4.4268   -21.5027     0.7136 H          1           0.1291
     26 H6          3.1835   -23.0980    -1.5862 H          1           0.1217
     27 H7          2.9711   -20.2576     0.8409 H          1           0.1302
     28 H8          0.8875   -19.2844     1.7118 H          1           0.1216
     29 H9         -1.2788   -20.3156     1.1696 H          1           0.1171
     30 H10        -1.3773   -22.3241    -0.2470 H          1           0.1183
     31 H11         0.6920   -23.3085    -1.1396 H          1           0.1213
@<TRIPOS>BOND
     1    1    2 1
     2    2    3 2
     3    2    4 1
     4    4   12 ar
     5    4    5 ar
     6    5    9 ar
     7    5    6 1
     8    6    7 1
     9    7    8 1
    10    7   21 1
    11    7   22 1
    12    8    9 1
    13    9   10 ar
    14   10   11 ar
    15   10   23 1
    16   11   12 ar
    17   11   24 1
    18   12   13 1
    19   13   14 2
    20   13   25 1
    21   14   15 1
    22   14   26 1
    23   15   20 ar
    24   15   16 ar
    25   16   17 ar
    26   16   27 1
    27   17   18 ar
    28   17   28 1
    29   18   19 ar
    30   18   29 1
    31   19   20 ar
    32   19   30 1
    33   20   31 1
