AVX40811_0, 3
##########                 Name:           AVX40811_0
##########          Protonation:                  100
##########               SMILES:   CC(C)C[C@@H](Cc1ccc2c(c1C(=O)[O-])OCO2)CNC(=O)c3cccnc3
##########            Long Name:   l-2-[(pyridine-3-carbonylamino)methyl]pentyl]-1,3-benzodioxole-4-carboxylate
##########          FlexRecCode: 1
##########               Number:                   10
##########   Ligand Source File: /raid1/people/rgc/Examples/sampl4/screening/ligands/build_1//sampl4-hivint-00000
##########           GlobalRank: 82
##########                 Rank:                    1
##########               Setnum:                   21
##########             Matchnum:                  311
##########                Cloud:                    1
##########        Electrostatic:           -20.117104
##########        Van der Waals:           -29.184902
##########  Ligand Polar Desolv:            25.506636
########## Ligand Apolar Desolv:            -2.724266
##########      Internal Energy:             0.000000
##########      Receptor Energy: 0.0
########## Receptor Desolvation:             0.000000
########## Receptor Hydrophobic:             0.000000
##########         Total Energy: -26.52
##########        Ligand Charge:            -1.000000
##########            Arbitrary:    +999.9990
##########     heavy atom count:   28
##########           pose count:    1
##########        Ligand Energy:             0.000000
# num electro vdwattr vdwrepu polsolv apolsol rdesolv rhydroe totalscore fullpol fullapo
#   1    4.88   -1.03    0.16    0.44   -0.08    0.00    0.00       4.37    1.05   -0.18
#   2    2.55   -0.79    0.11    0.42   -0.05    0.00    0.00       2.24    1.26   -0.15
#   3    3.43   -0.77    0.09    0.78   -0.06    0.00    0.00       3.47    2.28   -0.17
#   4    1.42   -0.39    0.01    0.27   -0.04    0.00    0.00       1.28    1.22   -0.17
#   5    0.70   -0.48    0.03    0.34   -0.02    0.00    0.00       0.56    1.22   -0.08
#   6   -0.23   -0.71    0.33   -0.60   -0.08    0.00    0.00      -1.29   -2.70   -0.37
#   7   -1.94   -0.52    0.03    2.27    0.28    0.00    0.00       0.12   12.11    1.50
#   8    1.44   -0.40    0.02   -1.38   -0.10    0.00    0.00      -0.41   -9.41   -0.66
#   9   -0.50   -0.47    0.03    2.24    0.07    0.00    0.00       1.37   11.99    0.40
#  10   -0.60   -0.26    0.00    0.32   -0.04    0.00    0.00      -0.58    2.99   -0.41
#  11   -0.06   -0.35    0.03    0.04   -0.05    0.00    0.00      -0.39    0.37   -0.45
#  12   -0.32   -0.25    0.01    0.07   -0.05    0.00    0.00      -0.53    0.75   -0.48
#  13    0.13   -0.14    0.00   -0.04   -0.05    0.00    0.00      -0.10   -0.78   -0.98
#  14   -0.65   -0.18    0.00    0.38    0.14    0.00    0.00      -0.31    5.68    2.04
#  15    0.33   -0.25    0.00   -0.14   -0.09    0.00    0.00      -0.15   -1.50   -0.93
#  16    0.20   -0.82    0.09    0.42   -0.06    0.00    0.00      -0.16    1.21   -0.17
#  17   -0.07   -1.57    0.22    0.23   -0.13    0.00    0.00      -1.32    0.57   -0.31
#  18    0.27   -2.24    0.57    0.49   -0.19    0.00    0.00      -1.10    1.02   -0.40
#  19   -0.27   -2.87    0.98    0.27   -0.25    0.00    0.00      -2.15    0.50   -0.47
#  20   -0.04   -2.51    0.57    0.07   -0.20    0.00    0.00      -2.12    0.11   -0.33
#  21   -2.91   -2.54    0.43    3.38    0.35    0.00    0.00      -1.29    4.99    0.52
#  22    2.72   -2.17    0.39   -2.17    0.01    0.00    0.00      -1.21   -3.11    0.02
#  23   -5.22   -3.39    1.65    6.14    0.22    0.00    0.00      -0.60    9.51    0.34
#  24    1.06   -2.14    0.30   -0.19   -0.18    0.00    0.00      -1.15   -0.33   -0.32
#  25   -1.46   -1.68    0.21    2.75   -0.19    0.00    0.00      -0.37    5.96   -0.41
#  26    8.67   -2.14    0.73   -7.71   -0.07    0.00    0.00      -0.53  -17.51   -0.16
#  27  -13.03   -3.57    2.12   12.68   -0.15    0.00    0.00      -1.95   25.22   -0.29
#  28  -11.11   -1.97    1.56   11.61   -0.20    0.00    0.00      -0.12   32.02   -0.55
#  29   -1.43   -0.26    0.02   -0.13   -0.07    0.00    0.00      -1.86   -0.53   -0.28
#  30   -1.98   -0.49    0.36   -0.15   -0.08    0.00    0.00      -2.34   -0.56   -0.28
#  31   -2.29   -0.43    0.11   -0.19   -0.11    0.00    0.00      -2.91   -0.47   -0.28
#  32   -1.64   -0.53    0.26   -0.29   -0.05    0.00    0.00      -2.25   -0.95   -0.17
#  33   -0.70   -0.16    0.01   -0.11   -0.05    0.00    0.00      -1.00   -0.67   -0.28
#  34   -1.82   -0.35    0.08   -0.03   -0.06    0.00    0.00      -2.19   -0.09   -0.19
#  35   -1.12   -0.27    0.05   -0.25   -0.07    0.00    0.00      -1.65   -1.07   -0.28
#  36   -0.35   -0.11    0.01   -0.08   -0.02    0.00    0.00      -0.55   -0.79   -0.21
#  37   -0.93   -0.09    0.00   -0.09   -0.02    0.00    0.00      -1.13   -1.11   -0.28
#  38   -1.39   -0.17    0.01   -0.08   -0.03    0.00    0.00      -1.66   -0.46   -0.16
#  39   -0.41   -0.18    0.05   -0.02   -0.04    0.00    0.00      -0.61   -0.15   -0.28
#  40    0.17   -0.75    2.13   -0.40   -0.07    0.00    0.00       1.08   -1.61   -0.28
#  41    2.16   -0.01    0.00   -0.70    0.02    0.00    0.00       1.47   -6.67    0.18
#  42    0.59   -0.16    0.05   -0.17   -0.03    0.00    0.00       0.29   -1.49   -0.27
#  43    0.21   -0.07    0.01   -0.02   -0.02    0.00    0.00       0.11   -0.32   -0.28
#  44    0.17   -0.02    0.00   -0.01   -0.01    0.00    0.00       0.14   -0.55   -0.28
#  45    0.31   -0.07    0.00   -0.12   -0.01    0.00    0.00       0.10   -1.91   -0.22
#  46   -0.56   -0.48    0.19   -0.66   -0.09    0.00    0.00      -1.61   -1.95   -0.28
#  47    0.39   -0.24    0.04   -0.15   -0.05    0.00    0.00       0.00   -0.61   -0.21
#  48   -1.24   -0.38    0.05   -0.67   -0.11    0.00    0.00      -2.34   -1.78   -0.28
#  49   -0.11   -0.58    0.15   -0.91   -0.14    0.00    0.00      -1.60   -1.79   -0.28
#  50    1.52   -0.96    0.41   -1.61   -0.19    0.00    0.00      -0.83   -2.35   -0.28
#  51    0.95   -0.86    0.40   -1.04   -0.18    0.00    0.00      -0.73   -1.61   -0.28

@<TRIPOS>MOLECULE
       AVX40811_0       100
   51    53     0     0     0



@<TRIPOS>ATOM
      1 C1          3.0123   -19.1518    -1.4613 C.3        1          -0.1430
      2 C2          2.3349   -19.9445    -0.3416 C.3        1          -0.1166
      3 C3          1.0521   -19.2289     0.0859 C.3        1          -0.1642
      4 C4          1.9925   -21.3479    -0.8454 C.3        1          -0.1163
      5 C5          3.2753   -22.0636    -1.2728 C.3        1          -0.0838
      6 C6          2.9328   -23.4671    -1.7766 C.3        1           0.1304
      7 N1          2.2842   -24.2261    -0.7045 N.am       1          -0.7126
      8 C7          1.3829   -25.1819    -1.0055 C.2        1           0.5547
      9 O1          1.1082   -25.4141    -2.1665 O.2        1          -0.5392
     10 C8          0.7283   -25.9477     0.0765 C.ar       1          -0.1816
     11 C9          0.5668   -25.3863     1.3490 C.ar       1          -0.0186
     12 C10        -0.0528   -26.1445     2.3265 C.ar       1          -0.1807
     13 C11        -0.4889   -27.4209     2.0185 C.ar       1           0.1162
     14 N2         -0.3231   -27.9241     0.8103 N.ar       1          -0.4850
     15 C12         0.2558   -27.2399    -0.1548 C.ar       1           0.1329
     16 C13         4.2235   -22.1685    -0.0766 C.3        1          -0.0615
     17 C14         5.4872   -22.8735    -0.4975 C.ar       1          -0.0318
     18 C15         6.2743   -22.3404    -1.4940 C.ar       1          -0.1338
     19 C16         7.4378   -22.9820    -1.8865 C.ar       1          -0.1030
     20 C17         7.8233   -24.1664    -1.2821 C.ar       1          -0.0045
     21 O2          8.9039   -24.9760    -1.4852 O.3        1          -0.3196
     22 C18         8.9842   -25.8093    -0.3137 C.3        1           0.2050
     23 O3          7.6243   -25.8707     0.1558 O.3        1          -0.2780
     24 C19         7.0386   -24.7187    -0.2728 C.ar       1           0.0757
     25 C20         5.8645   -24.0671     0.1280 C.ar       1          -0.1226
     26 C21         5.0297   -24.6379     1.1973 C.2        1           0.5210
     27 O4          5.2299   -24.3245     2.3628 O.co2      1          -0.6708
     28 O5          4.1358   -25.4259     0.9209 O.co2      1          -0.6736
     29 H1          3.9262   -19.6617    -1.7658 H          1           0.0495
     30 H2          2.3368   -19.0770    -2.3135 H          1           0.0504
     31 H3          3.2564   -18.1519    -1.1023 H          1           0.0530
     32 H4          3.0104   -20.0192     0.5106 H          1           0.0794
     33 H5          0.5695   -19.7937     0.8836 H          1           0.0606
     34 H6          1.2960   -18.2291     0.4450 H          1           0.0644
     35 H7          0.3764   -19.1542    -0.7663 H          1           0.0523
     36 H8          1.5099   -21.9127    -0.0477 H          1           0.0684
     37 H9          1.3169   -21.2733    -1.6976 H          1           0.0581
     38 H10         3.7579   -21.4990    -2.0705 H          1           0.1022
     39 H11         2.2573   -23.3925    -2.6288 H          1           0.0776
     40 H12         3.8468   -23.9770    -2.0811 H          1           0.0658
     41 H13         2.5034   -24.0407     0.2220 H          1           0.4028
     42 H14         0.9171   -24.3871     1.5622 H          1           0.1477
     43 H15        -0.1943   -25.7443     3.3196 H          1           0.1419
     44 H16        -0.9725   -28.0150     2.7795 H          1           0.1603
     45 H17         0.3692   -27.6845    -1.1325 H          1           0.1571
     46 H18         4.4676   -21.1686     0.2823 H          1           0.0511
     47 H19         3.7409   -22.7332     0.7211 H          1           0.1129
     48 H20         5.9826   -21.4172    -1.9724 H          1           0.1285
     49 H21         8.0478   -22.5555    -2.6692 H          1           0.1236
     50 H22         9.3444   -26.8042    -0.5752 H          1           0.1229
     51 H23         9.6285   -25.3527     0.4377 H          1           0.0747
@<TRIPOS>BOND
     1    1    2 1
     2    1   29 1
     3    1   30 1
     4    1   31 1
     5    2    3 1
     6    2    4 1
     7    2   32 1
     8    3   33 1
     9    3   34 1
    10    3   35 1
    11    4    5 1
    12    4   36 1
    13    4   37 1
    14    5    6 1
    15    5   16 1
    16    5   38 1
    17    6    7 1
    18    6   39 1
    19    6   40 1
    20    7    8 am
    21    7   41 1
    22    8    9 2
    23    8   10 1
    24   10   15 ar
    25   10   11 ar
    26   11   12 ar
    27   11   42 1
    28   12   13 ar
    29   12   43 1
    30   13   14 ar
    31   13   44 1
    32   14   15 ar
    33   15   45 1
    34   16   17 1
    35   16   46 1
    36   16   47 1
    37   17   25 ar
    38   17   18 ar
    39   18   19 ar
    40   18   48 1
    41   19   20 ar
    42   19   49 1
    43   20   24 ar
    44   20   21 1
    45   21   22 1
    46   22   23 1
    47   22   50 1
    48   22   51 1
    49   23   24 1
    50   24   25 ar
    51   25   26 1
    52   26   27 1
    53   26   28 2
