GL5243104_0, 3
##########                 Name:          GL5243104_0
##########          Protonation:                  100
##########               SMILES:   CC(C)C[C@@H](Cc1ccc2c(c1C(=O)[O-])OCO2)CNC(=O)c3ccncc3
##########            Long Name:   l-2-[(pyridine-4-carbonylamino)methyl]pentyl]-1,3-benzodioxole-4-carboxylate
##########          FlexRecCode: 1
##########               Number:                   42
##########   Ligand Source File: /raid1/people/rgc/Examples/sampl4/screening/ligands/build_1//sampl4-hivint-00000
##########           GlobalRank: 50
##########                 Rank:                    1
##########               Setnum:                   12
##########             Matchnum:                  311
##########                Cloud:                    1
##########        Electrostatic:           -21.987280
##########        Van der Waals:           -29.146477
##########  Ligand Polar Desolv:            23.441637
########## Ligand Apolar Desolv:            -2.521622
##########      Internal Energy:             0.000000
##########      Receptor Energy: 0.0
########## Receptor Desolvation:             0.000000
########## Receptor Hydrophobic:             0.000000
##########         Total Energy: -30.21
##########        Ligand Charge:            -1.000000
##########            Arbitrary:    +999.9990
##########     heavy atom count:   28
##########           pose count:    1
##########        Ligand Energy:             0.000000
# num electro vdwattr vdwrepu polsolv apolsol rdesolv rhydroe totalscore fullpol fullapo
#   1    4.68   -1.03    0.16    0.98   -0.07    0.00    0.00       4.73    2.35   -0.16
#   2    1.96   -0.79    0.11    0.44   -0.05    0.00    0.00       1.68    1.35   -0.15
#   3    3.04   -0.76    0.08    0.48   -0.06    0.00    0.00       2.78    1.42   -0.18
#   4    1.22   -0.39    0.01    0.22   -0.04    0.00    0.00       1.03    0.98   -0.17
#   5    0.69   -0.48    0.03    0.26   -0.02    0.00    0.00       0.47    0.93   -0.09
#   6   -0.21   -0.72    0.35   -0.40   -0.08    0.00    0.00      -1.07   -1.83   -0.37
#   7   -1.93   -0.52    0.03    1.54    0.41    0.00    0.00      -0.47    8.25    2.17
#   8    1.43   -0.40    0.02   -1.05   -0.10    0.00    0.00      -0.10   -7.11   -0.66
#   9   -0.49   -0.48    0.03    1.85    0.08    0.00    0.00       0.98    9.77    0.40
#  10   -0.27   -0.26    0.00    0.13   -0.04    0.00    0.00      -0.44    1.26   -0.41
#  11   -0.47   -0.34    0.02    0.12   -0.05    0.00    0.00      -0.72    1.02   -0.46
#  12    0.17   -0.25    0.01   -0.06   -0.09    0.00    0.00      -0.22   -0.64   -0.98
#  13   -0.53   -0.14    0.00    0.22    0.11    0.00    0.00      -0.34    4.25    2.05
#  14    0.12   -0.18    0.00   -0.05   -0.06    0.00    0.00      -0.17   -0.73   -0.98
#  15   -0.29   -0.26    0.00    0.11   -0.04    0.00    0.00      -0.47    1.21   -0.45
#  16    0.24   -0.81    0.09    0.46   -0.06    0.00    0.00      -0.09    1.30   -0.17
#  17   -0.09   -1.56    0.21    0.25   -0.12    0.00    0.00      -1.31    0.62   -0.30
#  18    0.27   -2.24    0.57    0.71   -0.18    0.00    0.00      -0.87    1.48   -0.38
#  19   -0.27   -2.87    0.98    0.50   -0.25    0.00    0.00      -1.91    0.93   -0.47
#  20   -0.04   -2.51    0.57    0.17   -0.20    0.00    0.00      -2.01    0.28   -0.33
#  21   -2.90   -2.54    0.43    3.78    0.35    0.00    0.00      -0.89    5.57    0.52
#  22    2.72   -2.17    0.39   -2.29    0.01    0.00    0.00      -1.34   -3.29    0.02
#  23   -5.23   -3.39    1.65    6.14    0.22    0.00    0.00      -0.61    9.50    0.34
#  24    1.04   -2.14    0.30   -0.16   -0.18    0.00    0.00      -1.14   -0.28   -0.32
#  25   -1.47   -1.68    0.21    2.65   -0.19    0.00    0.00      -0.47    5.76   -0.41
#  26    8.67   -2.13    0.73   -7.26   -0.07    0.00    0.00      -0.06  -16.51   -0.15
#  27  -12.78   -3.50    1.94   10.48   -0.11    0.00    0.00      -3.97   20.88   -0.21
#  28  -11.12   -1.98    1.58   11.18   -0.20    0.00    0.00      -0.54   30.93   -0.56
#  29   -0.73   -0.26    0.02   -0.30   -0.07    0.00    0.00      -1.34   -1.27   -0.28
#  30   -1.68   -0.49    0.36   -0.04   -0.08    0.00    0.00      -1.92   -0.16   -0.28
#  31   -3.69   -0.43    0.11   -0.03   -0.06    0.00    0.00      -4.11   -0.08   -0.16
#  32   -1.86   -0.52    0.24   -0.13   -0.06    0.00    0.00      -2.32   -0.43   -0.20
#  33   -0.50   -0.16    0.01   -0.12   -0.05    0.00    0.00      -0.82   -0.77   -0.28
#  34   -1.28   -0.35    0.07   -0.25   -0.09    0.00    0.00      -1.89   -0.76   -0.28
#  35   -1.05   -0.27    0.05   -0.10   -0.06    0.00    0.00      -1.43   -0.44   -0.28
#  36   -0.28   -0.11    0.01   -0.10   -0.03    0.00    0.00      -0.51   -1.01   -0.28
#  37   -0.78   -0.09    0.00   -0.08   -0.02    0.00    0.00      -0.97   -0.96   -0.24
#  38   -1.28   -0.17    0.01   -0.06   -0.03    0.00    0.00      -1.53   -0.33   -0.19
#  39   -0.39   -0.19    0.06   -0.07   -0.03    0.00    0.00      -0.63   -0.46   -0.22
#  40    0.17   -0.76    2.24   -0.29   -0.07    0.00    0.00       1.29   -1.16   -0.28
#  41    2.13   -0.01    0.00   -0.43    0.04    0.00    0.00       1.73   -4.12    0.39
#  42    0.56   -0.15    0.05   -0.11   -0.02    0.00    0.00       0.32   -0.96   -0.22
#  43    0.25   -0.07    0.00   -0.05   -0.02    0.00    0.00       0.11   -0.83   -0.28
#  44    0.16   -0.04    0.00   -0.03   -0.01    0.00    0.00       0.08   -0.90   -0.28
#  45    0.28   -0.07    0.00   -0.08   -0.02    0.00    0.00       0.11   -1.34   -0.27
#  46   -1.47   -0.48    0.18   -0.50   -0.05    0.00    0.00      -2.32   -1.50   -0.14
#  47    0.17   -0.24    0.04   -0.40   -0.07    0.00    0.00      -0.49   -1.67   -0.28
#  48   -1.23   -0.38    0.05   -0.83   -0.11    0.00    0.00      -2.49   -2.20   -0.28
#  49   -0.11   -0.58    0.15   -1.14   -0.14    0.00    0.00      -1.83   -2.23   -0.28
#  50    1.52   -0.96    0.41   -1.71   -0.19    0.00    0.00      -0.93   -2.50   -0.28
#  51    0.94   -0.86    0.40   -1.08   -0.18    0.00    0.00      -0.78   -1.67   -0.28

@<TRIPOS>MOLECULE
      GL5243104_0       100
   51    53     0     0     0



@<TRIPOS>ATOM
      1 C1          3.0066   -19.1578    -1.4672 C.3        1          -0.1374
      2 C2          2.3267   -19.9535    -0.3512 C.3        1          -0.0898
      3 C3          1.0413   -19.2404     0.0733 C.3        1          -0.1459
      4 C4          1.9878   -21.3565    -0.8587 C.3        1          -0.1001
      5 C5          3.2731   -22.0695    -1.2833 C.3        1          -0.0833
      6 C6          2.9343   -23.4725    -1.7908 C.3        1           0.1157
      7 N1          2.2832   -24.2345    -0.7222 N.am       1          -0.7121
      8 C7          1.3843   -25.1910    -1.0280 C.2        1           0.5519
      9 O1          1.1138   -25.4213    -2.1901 O.2        1          -0.5325
     10 C8          0.7259   -25.9613     0.0526 C.ar       1          -0.0829
     11 C9          0.5556   -25.4106     1.3265 C.ar       1          -0.1418
     12 C10        -0.0642   -26.1640     2.3045 C.ar       1           0.0965
     13 N2         -0.4914   -27.3846     2.0495 N.ar       1          -0.4728
     14 C11        -0.3511   -27.9412     0.8629 C.ar       1           0.0940
     15 C12         0.2520   -27.2569    -0.1746 C.ar       1          -0.1174
     16 C13         4.2176   -22.1752    -0.0842 C.3        1          -0.0745
     17 C14         5.4836   -22.8776    -0.5023 C.ar       1          -0.0379
     18 C15         6.2732   -22.3416    -1.4952 C.ar       1          -0.1353
     19 C16         7.4389   -22.9808    -1.8852 C.ar       1          -0.1019
     20 C17         7.8240   -24.1658    -1.2818 C.ar       1          -0.0046
     21 O2          8.9064   -24.9736    -1.4830 O.3        1          -0.3195
     22 C18         8.9840   -25.8089    -0.3126 C.3        1           0.2051
     23 O3          7.6229   -25.8731     0.1522 O.3        1          -0.2782
     24 C19         7.0368   -24.7211    -0.2761 C.ar       1           0.0743
     25 C20         5.8605   -24.0719     0.1222 C.ar       1          -0.1234
     26 C21         5.0232   -24.6459     1.1878 C.2        1           0.5214
     27 O4          5.2192   -24.3344     2.3544 O.co2      1          -0.6606
     28 O5          4.1312   -25.4346     0.9068 O.co2      1          -0.6739
     29 H1          3.9223   -19.6658    -1.7696 H          1           0.0253
     30 H2          2.3339   -19.0825    -2.3214 H          1           0.0427
     31 H3          3.2480   -18.1582    -1.1055 H          1           0.0856
     32 H4          2.9995   -20.0288     0.5031 H          1           0.0904
     33 H5          0.5568   -19.8073     0.8683 H          1           0.0435
     34 H6          1.2827   -18.2409     0.4349 H          1           0.0453
     35 H7          0.3685   -19.1650    -0.7811 H          1           0.0490
     36 H8          1.5035   -21.9234    -0.0637 H          1           0.0551
     37 H9          1.3150   -21.2812    -1.7130 H          1           0.0489
     38 H10         3.7576   -21.5027    -2.0783 H          1           0.0941
     39 H11         2.2615   -23.3972    -2.6451 H          1           0.0740
     40 H12         3.8499   -23.9805    -2.0932 H          1           0.0660
     41 H13         2.4993   -24.0506     0.2054 H          1           0.4005
     42 H14         0.9038   -24.4114     1.5427 H          1           0.1406
     43 H15        -0.2003   -25.7475     3.2916 H          1           0.1626
     44 H16        -0.7159   -28.9443     0.6985 H          1           0.1624
     45 H17         0.3596   -27.7174    -1.1455 H          1           0.1477
     46 H18         4.4589   -21.1757     0.2774 H          1           0.1350
     47 H19         3.7332   -22.7422     0.7109 H          1           0.0495
     48 H20         5.9819   -21.4178    -1.9728 H          1           0.1281
     49 H21         8.0508   -22.5520    -2.6651 H          1           0.1238
     50 H22         9.3465   -26.8029    -0.5748 H          1           0.1228
     51 H23         9.6253   -25.3529     0.4416 H          1           0.0739
@<TRIPOS>BOND
     1    1    2 1
     2    1   29 1
     3    1   30 1
     4    1   31 1
     5    2    3 1
     6    2    4 1
     7    2   32 1
     8    3   33 1
     9    3   34 1
    10    3   35 1
    11    4    5 1
    12    4   36 1
    13    4   37 1
    14    5    6 1
    15    5   16 1
    16    5   38 1
    17    6    7 1
    18    6   39 1
    19    6   40 1
    20    7    8 am
    21    7   41 1
    22    8    9 2
    23    8   10 1
    24   10   15 ar
    25   10   11 ar
    26   11   12 ar
    27   11   42 1
    28   12   13 ar
    29   12   43 1
    30   13   14 ar
    31   14   15 ar
    32   14   44 1
    33   15   45 1
    34   16   17 1
    35   16   46 1
    36   16   47 1
    37   17   25 ar
    38   17   18 ar
    39   18   19 ar
    40   18   48 1
    41   19   20 ar
    42   19   49 1
    43   20   24 ar
    44   20   21 1
    45   21   22 1
    46   22   23 1
    47   22   50 1
    48   22   51 1
    49   23   24 1
    50   24   25 ar
    51   25   26 1
    52   26   27 1
    53   26   28 2
