GL5243100_0, 3
##########                 Name:          GL5243100_0
##########          Protonation:                  100
##########               SMILES:   CC(C)C[C@@H](Cc1ccc2c(c1C(=O)[O-])OCO2)CNC(=O)Cc3cc[nH]c3
##########            Long Name:   2-(1H-pyrrol-3-yl)acetyl]amino]methyl]pentyl]-1,3-benzodioxole-4-carboxylate
##########          FlexRecCode: 1
##########               Number:                  513
##########   Ligand Source File: /raid1/people/rgc/Examples/sampl4/screening/ligands/build_1//sampl4-hivint-00000
##########           GlobalRank: 60
##########                 Rank:                    1
##########               Setnum:                   83
##########             Matchnum:                 1488
##########                Cloud:                    1
##########        Electrostatic:           -16.423288
##########        Van der Waals:           -33.206642
##########  Ligand Polar Desolv:            23.844299
########## Ligand Apolar Desolv:            -3.159181
##########      Internal Energy:             0.000000
##########      Receptor Energy: 0.0
########## Receptor Desolvation:             0.000000
########## Receptor Hydrophobic:             0.000000
##########         Total Energy: -28.94
##########        Ligand Charge:            -1.000000
##########            Arbitrary:    +999.9990
##########     heavy atom count:   28
##########           pose count:    1
##########        Ligand Energy:             0.000000
# num electro vdwattr vdwrepu polsolv apolsol rdesolv rhydroe totalscore fullpol fullapo
#   1    5.92   -1.51    0.48    0.50   -0.09    0.00    0.00       5.29    0.99   -0.18
#   2    3.39   -1.18    0.36    0.45   -0.06    0.00    0.00       2.97    1.19   -0.15
#   3    4.51   -1.15    0.24    0.79   -0.06    0.00    0.00       4.33    2.10   -0.16
#   4    2.30   -0.51    0.02    0.34   -0.05    0.00    0.00       2.12    1.24   -0.17
#   5    1.21   -0.57    0.03    0.37   -0.03    0.00    0.00       1.01    1.17   -0.08
#   6   -1.07   -0.79    0.30   -0.76   -0.10    0.00    0.00      -2.43   -2.86   -0.37
#   7    2.01   -0.62    0.08    2.16    0.28    0.00    0.00       3.91   11.73    1.51
#   8   -1.11   -0.54    0.06   -1.32   -0.11    0.00    0.00      -3.01   -8.21   -0.66
#   9    2.45   -0.68    0.08    3.10    0.09    0.00    0.00       5.04   12.80    0.38
#  10   -0.04   -0.18    0.00    0.07   -0.03    0.00    0.00      -0.18    0.64   -0.27
#  11   -0.34   -0.46    0.02    0.45   -0.06    0.00    0.00      -0.39    2.49   -0.33
#  12    0.00   -0.91    0.17    0.10   -0.25    0.00    0.00      -0.90    0.40   -1.01
#  13    0.01   -1.53    0.33    1.50    0.40    0.00    0.00       0.72    4.42    1.19
#  14   -0.04   -1.04    0.08    0.02   -0.36    0.00    0.00      -1.34    0.05   -1.01
#  15   -0.96   -0.65    0.03    0.70   -0.13    0.00    0.00      -1.01    2.78   -0.51
#  16    0.48   -0.88    0.12    0.46   -0.06    0.00    0.00       0.12    1.27   -0.17
#  17    0.04   -1.70    0.29    0.24   -0.13    0.00    0.00      -1.26    0.58   -0.31
#  18    0.75   -2.78    1.07    0.54   -0.20    0.00    0.00      -0.62    1.08   -0.40
#  19    0.05   -3.46    1.95    0.29   -0.27    0.00    0.00      -1.44    0.51   -0.47
#  20   -0.04   -2.74    0.78    0.05   -0.19    0.00    0.00      -2.14    0.09   -0.33
#  21   -2.45   -2.77    0.60    3.45    0.36    0.00    0.00      -0.81    4.97    0.52
#  22    2.54   -2.00    0.30   -2.11    0.01    0.00    0.00      -1.26   -3.09    0.02
#  23   -4.75   -2.50    0.68    5.89    0.21    0.00    0.00      -0.47    9.46    0.34
#  24    0.88   -2.07    0.32   -0.18   -0.17    0.00    0.00      -1.23   -0.34   -0.32
#  25   -1.04   -1.54    0.18    2.61   -0.18    0.00    0.00       0.04    6.00   -0.41
#  26    6.64   -1.39    0.22   -7.15   -0.07    0.00    0.00      -1.75  -17.53   -0.16
#  27  -10.99   -1.94    0.40   11.34   -0.13    0.00    0.00      -1.32   25.29   -0.29
#  28   -7.93   -0.98    0.13    9.76   -0.17    0.00    0.00       0.81   31.89   -0.56
#  29   -1.72   -0.38    0.07   -0.22   -0.11    0.00    0.00      -2.35   -0.54   -0.28
#  30   -2.43   -0.67    0.56   -0.21   -0.11    0.00    0.00      -2.87   -0.51   -0.28
#  31   -2.53   -0.75    0.76   -0.19   -0.13    0.00    0.00      -2.86   -0.40   -0.28
#  32   -2.26   -0.81    0.83   -0.32   -0.06    0.00    0.00      -2.62   -0.98   -0.17
#  33   -1.13   -0.20    0.02   -0.01   -0.04    0.00    0.00      -1.36   -0.05   -0.19
#  34   -1.82   -0.60    0.39   -0.41   -0.11    0.00    0.00      -2.54   -1.06   -0.28
#  35   -1.69   -0.51    0.18   -0.19   -0.10    0.00    0.00      -2.30   -0.53   -0.28
#  36   -0.78   -0.10    0.00   -0.07   -0.02    0.00    0.00      -0.97   -0.76   -0.21
#  37   -1.45   -0.19    0.02   -0.18   -0.05    0.00    0.00      -1.84   -1.09   -0.28
#  38   -2.03   -0.23    0.02   -0.11   -0.04    0.00    0.00      -2.39   -0.49   -0.16
#  39   -0.92   -0.20    0.03    0.03   -0.06    0.00    0.00      -1.12    0.16   -0.28
#  40   -0.17   -0.81    2.04   -0.41   -0.08    0.00    0.00       0.56   -1.43   -0.28
#  41    0.08   -0.01    0.00   -0.60    0.03    0.00    0.00      -0.50   -6.17    0.32
#  42    0.21   -0.05    0.00   -0.05   -0.01    0.00    0.00       0.10   -1.25   -0.28
#  43   -0.07   -0.03    0.00   -0.04   -0.01    0.00    0.00      -0.16   -1.25   -0.28
#  44    0.21   -0.24    0.08   -0.31   -0.05    0.00    0.00      -0.30   -1.77   -0.28
#  45   -0.67   -0.04    0.00   -0.75    0.22    0.00    0.00      -1.24   -2.03    0.60
#  46   -0.02   -0.26    0.02   -0.28   -0.08    0.00    0.00      -0.62   -1.00   -0.28
#  47    1.24   -0.16    0.02   -0.22   -0.04    0.00    0.00       0.84   -1.42   -0.28
#  48   -0.73   -0.64    0.47   -0.70   -0.10    0.00    0.00      -1.71   -1.98   -0.28
#  49   -0.13   -0.19    0.02   -0.12   -0.05    0.00    0.00      -0.48   -0.55   -0.21
#  50   -1.75   -0.52    0.13   -0.83   -0.12    0.00    0.00      -3.10   -1.90   -0.28
#  51   -0.58   -0.78    0.44   -1.03   -0.16    0.00    0.00      -2.11   -1.84   -0.28
#  52    1.41   -0.93    0.27   -1.56   -0.19    0.00    0.00      -1.00   -2.35   -0.28
#  53    0.92   -0.62    0.12   -1.05   -0.18    0.00    0.00      -0.81   -1.61   -0.28

@<TRIPOS>MOLECULE
      GL5243100_0       100
   53    55     0     0     0



@<TRIPOS>ATOM
      1 C1          3.5016   -18.3828    -1.3275 C.3        1          -0.1430
      2 C2          2.6449   -19.2868    -0.4387 C.3        1          -0.1161
      3 C3          1.3857   -18.5325    -0.0072 C.3        1          -0.1597
      4 C4          2.2460   -20.5402    -1.2201 C.3        1          -0.1152
      5 C5          3.5051   -21.2946    -1.6516 C.3        1          -0.0822
      6 C6          3.1061   -22.5481    -2.4329 C.3        1           0.1327
      7 N1          2.2859   -23.4136    -1.5818 N.am       1          -0.7259
      8 C7          1.3478   -24.2082    -2.1341 C.2        1           0.5063
      9 O1          1.1825   -24.2067    -3.3356 O.2        1          -0.5380
     10 C8          0.5041   -25.0985    -1.2585 C.3        1          -0.0697
     11 C9          0.7120   -26.5370    -1.6564 C.2        1          -0.1451
     12 C10         0.0030   -27.2211    -2.5772 C.2        1          -0.0011
     13 N2          0.5006   -28.4887    -2.6431 N.pl3      1          -0.5613
     14 C11         1.5304   -28.6013    -1.7566 C.2        1          -0.0229
     15 C12         1.6870   -27.4127    -1.1391 C.2        1          -0.1838
     16 C13         4.3068   -21.6995    -0.4129 C.3        1          -0.0623
     17 C14         5.5470   -22.4426    -0.8381 C.ar       1          -0.0306
     18 C15         6.4779   -21.8254    -1.6436 C.ar       1          -0.1341
     19 C16         7.6210   -22.5013    -2.0386 C.ar       1          -0.1030
     20 C17         7.8412   -23.8053    -1.6284 C.ar       1          -0.0054
     21 O2          8.8678   -24.6706    -1.8764 O.3        1          -0.3198
     22 C18         8.7529   -25.6987    -0.8747 C.3        1           0.2050
     23 O3          7.3499   -25.7053    -0.5513 O.3        1          -0.2782
     24 C19         6.9096   -24.4439    -0.8136 C.ar       1           0.0753
     25 C20         5.7561   -23.7584    -0.4097 C.ar       1          -0.1227
     26 C21         4.7669   -24.4206     0.4559 C.2        1           0.5211
     27 O4          4.8647   -24.3361     1.6724 O.co2      1          -0.6696
     28 O5          3.8469   -25.0557    -0.0411 O.co2      1          -0.6749
     29 H1          4.3986   -18.9203    -1.6350 H          1           0.0489
     30 H2          2.9305   -18.0944    -2.2100 H          1           0.0499
     31 H3          3.7858   -17.4899    -0.7709 H          1           0.0510
     32 H4          3.2160   -19.5752     0.4437 H          1           0.0845
     33 H5          0.7755   -19.1764     0.6261 H          1           0.0648
     34 H6          1.6700   -17.6394     0.5496 H          1           0.0504
     35 H7          0.8147   -18.2440    -0.8897 H          1           0.0562
     36 H8          1.6356   -21.1842    -0.5868 H          1           0.0655
     37 H9          1.6748   -20.2518    -2.1026 H          1           0.0562
     38 H10         4.1154   -20.6507    -2.2849 H          1           0.1009
     39 H11         2.5352   -22.2597    -3.3154 H          1           0.0709
     40 H12         4.0032   -23.0856    -2.7402 H          1           0.0598
     41 H13         2.4181   -23.4146    -0.6209 H          1           0.4018
     42 H14         0.7945   -24.9640    -0.2166 H          1           0.0947
     43 H15        -0.5470   -24.8365    -1.3795 H          1           0.0943
     44 H16        -0.8178   -26.8320    -3.1614 H          1           0.1607
     45 H17         0.1756   -29.1940    -3.2243 H          1           0.4123
     46 H18         2.1218   -29.4880    -1.5825 H          1           0.1597
     47 H19         2.4231   -27.1762    -0.3849 H          1           0.1313
     48 H20         4.5912   -20.8065     0.1437 H          1           0.0498
     49 H21         3.6965   -22.3434     0.2205 H          1           0.1118
     50 H22         6.3158   -20.8087    -1.9696 H          1           0.1283
     51 H23         8.3446   -22.0082    -2.6707 H          1           0.1234
     52 H24         9.0571   -26.6638    -1.2799 H          1           0.1226
     53 H25         9.3474   -25.4461     0.0033 H          1           0.0744
@<TRIPOS>BOND
     1    1    2 1
     2    1   29 1
     3    1   30 1
     4    1   31 1
     5    2    3 1
     6    2    4 1
     7    2   32 1
     8    3   33 1
     9    3   34 1
    10    3   35 1
    11    4    5 1
    12    4   36 1
    13    4   37 1
    14    5    6 1
    15    5   16 1
    16    5   38 1
    17    6    7 1
    18    6   39 1
    19    6   40 1
    20    7    8 am
    21    7   41 1
    22    8    9 2
    23    8   10 1
    24   10   11 1
    25   10   42 1
    26   10   43 1
    27   11   15 1
    28   11   12 2
    29   12   13 1
    30   12   44 1
    31   13   14 1
    32   13   45 1
    33   14   15 2
    34   14   46 1
    35   15   47 1
    36   16   17 1
    37   16   48 1
    38   16   49 1
    39   17   25 ar
    40   17   18 ar
    41   18   19 ar
    42   18   50 1
    43   19   20 ar
    44   19   51 1
    45   20   24 ar
    46   20   21 1
    47   21   22 1
    48   22   23 1
    49   22   52 1
    50   22   53 1
    51   23   24 1
    52   24   25 ar
    53   25   26 1
    54   26   27 1
    55   26   28 2
