GL5243102_0, 3
##########                 Name:          GL5243102_0
##########          Protonation:                   86
##########               SMILES:   CC(C)C[C@@H](Cc1ccc2c(c1C(=O)[O-])OCO2)CNC(=O)Cc3c[nH]cn3
##########            Long Name:   ol-4-yl)acetyl]amino]methyl]-4-methyl-pentyl]-1,3-benzodioxole-4-carboxylate
##########          FlexRecCode: 1
##########               Number:                  664
##########   Ligand Source File: /raid1/people/rgc/Examples/sampl4/screening/ligands/build_1//sampl4-hivint-00000
##########           GlobalRank: 53
##########                 Rank:                    1
##########               Setnum:                   62
##########             Matchnum:                13487
##########                Cloud:                    1
##########        Electrostatic:           -23.594870
##########        Van der Waals:           -29.184555
##########  Ligand Polar Desolv:            25.274353
########## Ligand Apolar Desolv:            -2.399818
##########      Internal Energy:             0.000000
##########      Receptor Energy: 0.0
########## Receptor Desolvation:             0.000000
########## Receptor Hydrophobic:             0.000000
##########         Total Energy: -29.9
##########        Ligand Charge:            -1.000000
##########            Arbitrary:    +999.9990
##########     heavy atom count:   28
##########           pose count:    1
##########        Ligand Energy:             0.000000
# num electro vdwattr vdwrepu polsolv apolsol rdesolv rhydroe totalscore fullpol fullapo
#   1    3.74   -0.82    0.09    0.87   -0.06    0.00    0.00       3.83    2.45   -0.17
#   2    1.17   -0.64    0.08    0.39   -0.04    0.00    0.00       0.96    1.42   -0.15
#   3    1.24   -0.53    0.06    0.37   -0.05    0.00    0.00       1.09    1.46   -0.18
#   4    0.76   -0.34    0.02    0.18   -0.03    0.00    0.00       0.60    1.03   -0.17
#   5    0.65   -0.39    0.01    0.23   -0.02    0.00    0.00       0.49    0.99   -0.09
#   6   -0.32   -0.52    0.13   -0.43   -0.07    0.00    0.00      -1.21   -2.23   -0.37
#   7   -2.11   -0.49    0.03    1.67    0.39    0.00    0.00      -0.52    9.40    2.18
#   8    0.93   -0.31    0.01   -0.84   -0.08    0.00    0.00      -0.30   -7.16   -0.66
#   9    0.42   -0.25    0.00    1.40    0.04    0.00    0.00       1.61   11.85    0.37
#  10   -0.18   -0.16    0.00    0.04   -0.03    0.00    0.00      -0.32    0.40   -0.27
#  11    0.05   -0.33    0.01    0.11   -0.08    0.00    0.00      -0.24    0.88   -0.64
#  12   -0.05   -0.38    0.02    0.00   -0.15    0.00    0.00      -0.57    0.02   -1.01
#  13    0.70   -0.90    0.11    0.63    0.32    0.00    0.00       0.85    2.41    1.22
#  14   -0.31   -1.14    0.16   -0.46   -1.09    0.00    0.00      -2.84   -1.42   -3.33
#  15   -1.45   -0.63    0.02    2.30    0.56    0.00    0.00       0.79    8.43    2.04
#  16    0.22   -0.70    0.07    0.45   -0.05    0.00    0.00      -0.01    1.42   -0.17
#  17    0.03   -1.34    0.15    0.25   -0.12    0.00    0.00      -1.02    0.66   -0.30
#  18    1.00   -1.80    0.31    0.79   -0.18    0.00    0.00       0.13    1.75   -0.39
#  19    0.39   -2.71    0.83    0.58   -0.25    0.00    0.00      -1.16    1.11   -0.47
#  20   -0.02   -2.80    0.92    0.16   -0.18    0.00    0.00      -1.92    0.29   -0.33
#  21   -1.61   -2.66    0.70    3.88    0.34    0.00    0.00       0.65    5.92    0.52
#  22    1.86   -1.93    0.40   -2.36    0.01    0.00    0.00      -2.03   -3.47    0.02
#  23   -3.89   -1.95    0.21    6.24    0.22    0.00    0.00       0.82    9.79    0.34
#  24    0.74   -2.04    0.32   -0.18   -0.17    0.00    0.00      -1.32   -0.35   -0.32
#  25   -1.07   -1.50    0.16    2.63   -0.18    0.00    0.00       0.04    6.05   -0.41
#  26    8.04   -1.84    0.52   -7.47   -0.07    0.00    0.00      -0.81  -17.10   -0.15
#  27  -12.74   -2.91    1.15   10.53   -0.10    0.00    0.00      -4.08   21.56   -0.21
#  28  -11.37   -2.09    1.72   11.22   -0.20    0.00    0.00      -0.72   31.59   -0.56
#  29   -0.74   -0.21    0.01   -0.27   -0.06    0.00    0.00      -1.27   -1.35   -0.28
#  30   -1.19   -0.31    0.08   -0.05   -0.07    0.00    0.00      -1.54   -0.19   -0.28
#  31   -2.93   -0.35    0.06    0.00   -0.06    0.00    0.00      -3.28    0.00   -0.16
#  32   -0.87   -0.43    0.17   -0.10   -0.05    0.00    0.00      -1.28   -0.39   -0.20
#  33   -0.10   -0.17    0.04   -0.10   -0.04    0.00    0.00      -0.37   -0.83   -0.28
#  34   -0.51   -0.18    0.01   -0.16   -0.06    0.00    0.00      -0.89   -0.80   -0.28
#  35   -0.42   -0.16    0.04   -0.06   -0.04    0.00    0.00      -0.64   -0.46   -0.28
#  36   -0.07   -0.12    0.02   -0.11   -0.03    0.00    0.00      -0.30   -1.08   -0.28
#  37   -0.54   -0.07    0.00   -0.06   -0.01    0.00    0.00      -0.69   -1.08   -0.24
#  38   -1.43   -0.12    0.00   -0.03   -0.02    0.00    0.00      -1.60   -0.29   -0.19
#  39   -0.42   -0.11    0.01   -0.02   -0.02    0.00    0.00      -0.56   -0.19   -0.22
#  40   -0.01   -0.51    0.84   -0.26   -0.06    0.00    0.00       0.00   -1.18   -0.28
#  41    2.67   -0.01    0.00   -0.48    0.06    0.00    0.00       2.24   -4.52    0.52
#  42    0.54   -0.06    0.00   -0.06   -0.02    0.00    0.00       0.40   -0.87   -0.28
#  43    0.18   -0.03    0.00   -0.03   -0.01    0.00    0.00       0.12   -1.01   -0.28
#  44    0.17   -0.05    0.00   -0.02   -0.01    0.00    0.00       0.09   -0.35   -0.28
#  45   -1.08   -0.02    0.00   -0.01    0.14    0.00    0.00      -0.97   -0.04    0.59
#  46   -1.40   -0.47    0.18   -0.43   -0.10    0.00    0.00      -2.21   -1.25   -0.28
#  47   -1.23   -0.37    0.08   -0.51   -0.04    0.00    0.00      -2.07   -1.63   -0.14
#  48    0.23   -0.23    0.05   -0.38   -0.06    0.00    0.00      -0.38   -1.80   -0.28
#  49   -2.01   -0.28    0.03   -0.75   -0.08    0.00    0.00      -3.10   -2.59   -0.28
#  50   -0.95   -0.64    0.24   -1.35   -0.15    0.00    0.00      -2.85   -2.58   -0.28
#  51    0.93   -0.94    0.46   -1.66   -0.17    0.00    0.00      -1.38   -2.69   -0.28
#  52    0.75   -0.83    1.00   -0.97   -0.15    0.00    0.00      -0.21   -1.76   -0.28

@<TRIPOS>MOLECULE
      GL5243102_0        86
   52    54     0     0     0



@<TRIPOS>ATOM
      1 C1          1.8067   -19.3159    -0.7540 C.3        1          -0.1367
      2 C2          1.4209   -20.3810     0.2743 C.3        1          -0.0900
      3 C3          0.0911   -20.0004     0.9284 C.3        1          -0.1455
      4 C4          1.2767   -21.7350    -0.4235 C.3        1          -0.0986
      5 C5          2.6064   -22.1157    -1.0777 C.3        1          -0.0822
      6 C6          2.4624   -23.4696    -1.7755 C.3        1           0.1197
      7 N1          2.0929   -24.4897    -0.7909 N.am       1          -0.7284
      8 C7          0.9386   -25.1717    -0.9280 C.2        1           0.5117
      9 O1          0.2057   -24.9412    -1.8665 O.2        1          -0.5254
     10 C8          0.5584   -26.2208     0.0849 C.3        1          -0.0583
     11 C9          0.4166   -27.5545    -0.6023 C.2        1           0.0230
     12 C10        -0.7108   -28.0463    -1.1505 C.2        1          -0.0553
     13 N2         -0.3979   -29.2763    -1.6635 N.pl3      1          -0.5733
     14 C11         0.9108   -29.4933    -1.4106 C.2        1           0.1805
     15 N3          1.3925   -28.4572    -0.7801 N.2        1          -0.4635
     16 C12         3.6943   -22.2075    -0.0058 C.3        1          -0.0748
     17 C13         5.0040   -22.5824    -0.6501 C.ar       1          -0.0361
     18 C14         5.5582   -21.7657    -1.6105 C.ar       1          -0.1341
     19 C15         6.7621   -22.1029    -2.2075 C.ar       1          -0.1013
     20 C16         7.4225   -23.2648    -1.8460 C.ar       1          -0.0052
     21 O2          8.5981   -23.8090    -2.2775 O.3        1          -0.3200
     22 C17         8.9656   -24.7731    -1.2731 C.3        1           0.2052
     23 O3          7.7048   -25.1672    -0.7003 O.3        1          -0.2786
     24 C18         6.8756   -24.1017    -0.8765 C.ar       1           0.0739
     25 C19         5.6605   -23.7580    -0.2687 C.ar       1          -0.1234
     26 C20         5.0754   -24.6314     0.7612 C.2        1           0.5218
     27 O4          5.3545   -24.4593     1.9398 O.co2      1          -0.6606
     28 O5          4.3099   -25.5296     0.4386 O.co2      1          -0.6750
     29 H1          2.7540   -19.5871    -1.2200 H          1           0.0256
     30 H2          1.0319   -19.2504    -1.5177 H          1           0.0412
     31 H3          1.9094   -18.3513    -0.2569 H          1           0.0860
     32 H4          2.1959   -20.4465     1.0379 H          1           0.0893
     33 H5         -0.1839   -20.7593     1.6609 H          1           0.0434
     34 H6          0.1937   -19.0358     1.4255 H          1           0.0446
     35 H7         -0.6839   -19.9349     0.1646 H          1           0.0480
     36 H8          1.0019   -22.4940     0.3090 H          1           0.0528
     37 H9          0.5017   -21.6696    -1.1872 H          1           0.0505
     38 H10         2.8814   -21.3568    -1.8103 H          1           0.0928
     39 H11         1.6873   -23.4042    -2.5392 H          1           0.0686
     40 H12         3.4095   -23.7409    -2.2415 H          1           0.0587
     41 H13         2.6790   -24.6741    -0.0404 H          1           0.3980
     42 H14         1.3335   -26.2862     0.8485 H          1           0.1019
     43 H15        -0.3888   -25.9495     0.5509 H          1           0.1030
     44 H16        -1.6764   -27.5635    -1.1795 H          1           0.1751
     45 H17        -1.0031   -29.8793    -2.1228 H          1           0.4177
     46 H18         1.4675   -30.3763    -1.6879 H          1           0.2056
     47 H19         3.7969   -21.2429     0.4913 H          1           0.1333
     48 H20         3.4194   -22.9664     0.7268 H          1           0.0477
     49 H21         5.0512   -20.8571    -1.9002 H          1           0.1274
     50 H22         7.1879   -21.4554    -2.9598 H          1           0.1232
     51 H23         9.4638   -25.6292    -1.7281 H          1           0.1221
     52 H24         9.6033   -24.3148    -0.5173 H          1           0.0739
@<TRIPOS>BOND
     1    1    2 1
     2    1   29 1
     3    1   30 1
     4    1   31 1
     5    2    3 1
     6    2    4 1
     7    2   32 1
     8    3   33 1
     9    3   34 1
    10    3   35 1
    11    4    5 1
    12    4   36 1
    13    4   37 1
    14    5    6 1
    15    5   16 1
    16    5   38 1
    17    6    7 1
    18    6   39 1
    19    6   40 1
    20    7    8 am
    21    7   41 1
    22    8    9 2
    23    8   10 1
    24   10   11 1
    25   10   42 1
    26   10   43 1
    27   11   15 1
    28   11   12 2
    29   12   13 1
    30   12   44 1
    31   13   14 1
    32   13   45 1
    33   14   15 2
    34   14   46 1
    35   16   17 1
    36   16   47 1
    37   16   48 1
    38   17   25 ar
    39   17   18 ar
    40   18   19 ar
    41   18   49 1
    42   19   20 ar
    43   19   50 1
    44   20   24 ar
    45   20   21 1
    46   21   22 1
    47   22   23 1
    48   22   51 1
    49   22   52 1
    50   23   24 1
    51   24   25 ar
    52   25   26 1
    53   26   27 1
    54   26   28 2
