GL5243106_0, 3
##########                 Name:          GL5243106_0
##########          Protonation:                  100
##########               SMILES:   CC(C)C[C@@H](Cc1ccc2c(c1C(=O)[O-])OCO2)CNC(=O)c3ccc(cc3)N
##########            Long Name:   4-aminobenzoyl)amino]methyl]-4-methyl-pentyl]-1,3-benzodioxole-4-carboxylate
##########          FlexRecCode: 1
##########               Number:                   32
##########   Ligand Source File: /raid1/people/rgc/Examples/sampl4/screening/ligands/build_1//sampl4-hivint-00000
##########           GlobalRank: 89
##########                 Rank:                    1
##########               Setnum:                   17
##########             Matchnum:                 8790
##########                Cloud:                    1
##########        Electrostatic:           -19.001175
##########        Van der Waals:           -29.307207
##########  Ligand Polar Desolv:            25.106009
########## Ligand Apolar Desolv:            -2.605669
##########      Internal Energy:             0.000000
##########      Receptor Energy: 0.0
########## Receptor Desolvation:             0.000000
########## Receptor Hydrophobic:             0.000000
##########         Total Energy: -25.81
##########        Ligand Charge:            -1.000000
##########            Arbitrary:    +999.9990
##########     heavy atom count:   29
##########           pose count:    1
##########        Ligand Energy:             0.000000
# num electro vdwattr vdwrepu polsolv apolsol rdesolv rhydroe totalscore fullpol fullapo
#   1    4.60   -1.04    0.17    0.40   -0.07    0.00    0.00       4.07    1.06   -0.18
#   2    2.05   -0.73    0.09    0.42   -0.05    0.00    0.00       1.79    1.34   -0.15
#   3    1.95   -0.62    0.07    0.65   -0.05    0.00    0.00       2.00    2.22   -0.17
#   4    1.26   -0.37    0.02    0.26   -0.03    0.00    0.00       1.14    1.32   -0.17
#   5    0.90   -0.41    0.01    0.31   -0.02    0.00    0.00       0.79    1.24   -0.08
#   6   -0.67   -0.49    0.09   -0.59   -0.07    0.00    0.00      -1.74   -2.97   -0.37
#   7   -0.77   -0.49    0.03    2.26    0.25    0.00    0.00       1.29   13.36    1.50
#   8    0.88   -0.41    0.02   -1.54   -0.09    0.00    0.00      -1.14  -10.56   -0.65
#   9    0.26   -0.46    0.02    2.75    0.08    0.00    0.00       2.65   14.25    0.41
#  10   -0.63   -0.29    0.01    0.44   -0.05    0.00    0.00      -0.52    3.86   -0.41
#  11   -0.13   -0.29    0.01    0.06   -0.05    0.00    0.00      -0.41    0.52   -0.44
#  12   -0.50   -0.24    0.01    0.17   -0.04    0.00    0.00      -0.60    1.74   -0.46
#  13    0.29   -0.20    0.00   -0.13   -0.05    0.00    0.00      -0.09   -1.78   -0.73
#  14   -0.96   -0.15    0.00    0.10    0.05    0.00    0.00      -0.96    1.68    0.90
#  15   -0.33   -0.30    0.01    0.19   -0.05    0.00    0.00      -0.49    1.75   -0.46
#  16   -0.02   -0.35    0.01    0.05   -0.06    0.00    0.00      -0.38    0.39   -0.46
#  17    0.35   -0.74    0.08    0.42   -0.06    0.00    0.00       0.05    1.28   -0.17
#  18    0.09   -1.41    0.17    0.23   -0.12    0.00    0.00      -1.04    0.59   -0.31
#  19    1.22   -1.96    0.39    0.50   -0.19    0.00    0.00      -0.02    1.08   -0.40
#  20    0.52   -2.88    0.97    0.27   -0.25    0.00    0.00      -1.38    0.50   -0.47
#  21   -0.02   -2.93    1.10    0.04   -0.18    0.00    0.00      -1.99    0.08   -0.33
#  22   -1.43   -2.81    0.91    3.24    0.34    0.00    0.00       0.24    4.96    0.52
#  23    1.77   -1.99    0.42   -2.12    0.01    0.00    0.00      -1.90   -3.10    0.02
#  24   -3.71   -1.92    0.21    6.00    0.21    0.00    0.00       0.79    9.50    0.34
#  25    0.67   -2.12    0.40   -0.18   -0.16    0.00    0.00      -1.39   -0.35   -0.32
#  26   -0.86   -1.51    0.18    2.56   -0.17    0.00    0.00       0.19    6.01   -0.41
#  27    7.13   -1.58    0.29   -7.62   -0.07    0.00    0.00      -1.85  -17.69   -0.16
#  28  -12.23   -2.63    1.05   12.40   -0.14    0.00    0.00      -1.55   25.77   -0.29
#  29   -9.88   -1.42    0.46   11.03   -0.19    0.00    0.00       0.00   32.14   -0.56
#  30   -1.61   -0.26    0.02   -0.14   -0.07    0.00    0.00      -2.04   -0.57   -0.28
#  31   -1.75   -0.49    0.29   -0.17   -0.08    0.00    0.00      -2.20   -0.56   -0.28
#  32   -2.04   -0.45    0.11   -0.19   -0.11    0.00    0.00      -2.67   -0.48   -0.28
#  33   -1.32   -0.48    0.20   -0.28   -0.05    0.00    0.00      -1.93   -0.99   -0.17
#  34   -0.27   -0.16    0.03   -0.09   -0.04    0.00    0.00      -0.54   -0.66   -0.28
#  35   -1.03   -0.23    0.03    0.00   -0.05    0.00    0.00      -1.28   -0.01   -0.19
#  36   -0.58   -0.23    0.07   -0.20   -0.05    0.00    0.00      -0.99   -1.11   -0.28
#  37   -0.24   -0.11    0.02   -0.09   -0.02    0.00    0.00      -0.44   -0.85   -0.21
#  38   -0.81   -0.09    0.00   -0.09   -0.02    0.00    0.00      -1.00   -1.16   -0.28
#  39   -1.88   -0.14    0.00   -0.06   -0.02    0.00    0.00      -2.09   -0.50   -0.16
#  40   -0.66   -0.11    0.01    0.00   -0.03    0.00    0.00      -0.79    0.03   -0.28
#  41   -0.15   -0.45    0.59   -0.35   -0.06    0.00    0.00      -0.42   -1.63   -0.28
#  42    1.64   -0.01    0.00   -0.66    0.02    0.00    0.00       0.99   -7.12    0.19
#  43    0.54   -0.10    0.01   -0.13   -0.02    0.00    0.00       0.31   -1.47   -0.22
#  44    0.20   -0.05    0.00   -0.04   -0.01    0.00    0.00       0.10   -0.94   -0.28
#  45    0.45    0.00    0.00    0.00    0.01    0.00    0.00       0.46   -0.13    0.59
#  46    0.39    0.00    0.00    0.00    0.02    0.00    0.00       0.41   -0.07    0.59
#  47    0.07   -0.08    0.00   -0.07   -0.02    0.00    0.00      -0.10   -0.95   -0.28
#  48    0.24   -0.11    0.00   -0.17   -0.03    0.00    0.00      -0.06   -1.64   -0.26
#  49   -0.64   -0.43    0.13   -0.66   -0.09    0.00    0.00      -1.69   -2.05   -0.28
#  50    0.28   -0.22    0.05   -0.13   -0.05    0.00    0.00      -0.08   -0.59   -0.21
#  51   -2.27   -0.32    0.04   -0.62   -0.09    0.00    0.00      -3.25   -1.91   -0.28
#  52   -1.05   -0.74    0.41   -1.01   -0.15    0.00    0.00      -2.54   -1.84   -0.28
#  53    0.95   -1.06    0.64   -1.44   -0.17    0.00    0.00      -1.07   -2.36   -0.28
#  54    0.70   -0.74    0.61   -0.88   -0.15    0.00    0.00      -0.45   -1.62   -0.28

@<TRIPOS>MOLECULE
      GL5243106_0       100
   54    56     0     0     0



@<TRIPOS>ATOM
      1 C1          2.0549   -18.8971    -0.8344 C.3        1          -0.1424
      2 C2          1.6115   -19.9574     0.1756 C.3        1          -0.1175
      3 C3          0.3055   -19.5152     0.8388 C.3        1          -0.1619
      4 C4          1.3918   -21.2887    -0.5456 C.3        1          -0.1157
      5 C5          2.6978   -21.7309    -1.2089 C.3        1          -0.0830
      6 C6          2.4781   -23.0622    -1.9302 C.3        1           0.1314
      7 N1          2.0534   -24.0774    -0.9630 N.am       1          -0.7188
      8 C7          1.2500   -25.0863    -1.3540 C.2        1           0.5557
      9 O1          0.8776   -25.1540    -2.5096 O.2        1          -0.5513
     10 C8          0.8225   -26.1086    -0.3802 C.ar       1          -0.1914
     11 C9          0.7403   -25.7904     0.9786 C.ar       1          -0.0356
     12 C10         0.3407   -26.7461     1.8846 C.ar       1          -0.2062
     13 C11         0.0185   -28.0286     1.4492 C.ar       1           0.2368
     14 N2         -0.3855   -28.9919     2.3670 N.pl3      1          -0.8719
     15 C12         0.0993   -28.3485     0.0967 C.ar       1          -0.2103
     16 C13         0.4931   -27.3958    -0.8148 C.ar       1          -0.0097
     17 C14         3.7799   -21.9020    -0.1409 C.3        1          -0.0620
     18 C15         5.0661   -22.3376    -0.7942 C.ar       1          -0.0309
     19 C16         5.6639   -21.5359    -1.7410 C.ar       1          -0.1339
     20 C17         6.8466   -21.9287    -2.3462 C.ar       1          -0.1031
     21 C18         7.4418   -23.1318    -2.0066 C.ar       1          -0.0053
     22 O2          8.5850   -23.7326    -2.4499 O.3        1          -0.3199
     23 C19         8.8993   -24.7334    -1.4636 C.3        1           0.2050
     24 O3          7.6191   -25.0670    -0.8953 O.3        1          -0.2782
     25 C20         6.8502   -23.9542    -1.0510 C.ar       1           0.0753
     26 C21         5.6568   -23.5544    -0.4350 C.ar       1          -0.1224
     27 C22         5.0249   -24.4122     0.5804 C.2        1           0.5205
     28 O4          5.3142   -24.2769     1.7614 O.co2      1          -0.6693
     29 O5          4.2105   -25.2607     0.2435 O.co2      1          -0.6745
     30 H1          2.9853   -19.2121    -1.3068 H          1           0.0487
     31 H2          1.2842   -18.7754    -1.5953 H          1           0.0504
     32 H3          2.2113   -17.9487    -0.3206 H          1           0.0516
     33 H4          2.3823   -20.0792     0.9366 H          1           0.0838
     34 H5         -0.0105   -20.2705     1.5585 H          1           0.0586
     35 H6          0.4619   -18.5667     1.3526 H          1           0.0644
     36 H7         -0.4653   -19.3934     0.0778 H          1           0.0500
     37 H8          1.0760   -22.0440     0.1740 H          1           0.0666
     38 H9          0.6210   -21.1669    -1.3065 H          1           0.0575
     39 H10         3.0138   -20.9756    -1.9286 H          1           0.1009
     40 H11         1.7072   -22.9404    -2.6911 H          1           0.0743
     41 H12         3.4085   -23.3773    -2.4027 H          1           0.0629
     42 H13         2.3506   -24.0233    -0.0412 H          1           0.4015
     43 H14         0.9906   -24.7958     1.3171 H          1           0.1243
     44 H15         0.2773   -26.5011     2.9345 H          1           0.1250
     45 H16        -0.4424   -28.7700     3.3096 H          1           0.3993
     46 H17        -0.6101   -29.8857     2.0647 H          1           0.3989
     47 H18        -0.1513   -29.3443    -0.2381 H          1           0.1245
     48 H19         0.5514   -27.6433    -1.8645 H          1           0.1349
     49 H20         3.9363   -20.9536     0.3730 H          1           0.0507
     50 H21         3.4639   -22.6573     0.5787 H          1           0.1126
     51 H22         5.2078   -20.5956    -2.0136 H          1           0.1284
     52 H23         7.3070   -21.2926    -3.0877 H          1           0.1234
     53 H24         9.3489   -25.6076    -1.9346 H          1           0.1225
     54 H25         9.5622   -24.3247    -0.7009 H          1           0.0745
@<TRIPOS>BOND
     1    1    2 1
     2    1   30 1
     3    1   31 1
     4    1   32 1
     5    2    3 1
     6    2    4 1
     7    2   33 1
     8    3   34 1
     9    3   35 1
    10    3   36 1
    11    4    5 1
    12    4   37 1
    13    4   38 1
    14    5    6 1
    15    5   17 1
    16    5   39 1
    17    6    7 1
    18    6   40 1
    19    6   41 1
    20    7    8 am
    21    7   42 1
    22    8    9 2
    23    8   10 1
    24   10   16 ar
    25   10   11 ar
    26   11   12 ar
    27   11   43 1
    28   12   13 ar
    29   12   44 1
    30   13   14 1
    31   13   15 ar
    32   14   45 1
    33   14   46 1
    34   15   16 ar
    35   15   47 1
    36   16   48 1
    37   17   18 1
    38   17   49 1
    39   17   50 1
    40   18   26 ar
    41   18   19 ar
    42   19   20 ar
    43   19   51 1
    44   20   21 ar
    45   20   52 1
    46   21   25 ar
    47   21   22 1
    48   22   23 1
    49   23   24 1
    50   23   53 1
    51   23   54 1
    52   24   25 1
    53   25   26 ar
    54   26   27 1
    55   27   28 1
    56   27   29 2
