AVX17556_3, 3
##########                 Name:           AVX17556_0
##########          Protonation:                  100
##########               SMILES:   c1ccc2c(c1)C[C@H]([C@@H]2Cc3ccc4c(c3C(=O)[O-])OCO4)NC(=O)CCCC[NH3+]
##########            Long Name:   (5-azaniumylpentanoylamino)indan-1-yl]methyl]-1,3-benzodioxole-4-carboxylate
##########          FlexRecCode: 1
##########               Number:                  180
##########   Ligand Source File: /raid1/people/rgc/Examples/sampl4/screening/ligands/build_1//sampl4-hivint-00000
##########           GlobalRank: 61
##########                 Rank:                    1
##########               Setnum:                   11
##########             Matchnum:                20655
##########                Cloud:                    1
##########        Electrostatic:           -27.890846
##########        Van der Waals:           -12.680965
##########  Ligand Polar Desolv:            13.140840
########## Ligand Apolar Desolv:            -1.420020
##########      Internal Energy:             0.000000
##########      Receptor Energy: 0.0
########## Receptor Desolvation:             0.000000
########## Receptor Hydrophobic:             0.000000
##########         Total Energy: -28.85
##########        Ligand Charge:             0.000000
##########            Arbitrary:    +999.9990
##########     heavy atom count:   30
##########           pose count:    1
##########        Ligand Energy:             0.000000
# num electro vdwattr vdwrepu polsolv apolsol rdesolv rhydroe totalscore fullpol fullapo
#   1   13.47   -1.03    0.15   -6.85    0.30    0.00    0.00       6.03  -19.75    0.86
#   2  -11.13   -0.04    0.00    4.78    0.18    0.00    0.00      -6.20   15.20    0.58
#   3   -5.68   -0.01    0.00    2.22    0.08    0.00    0.00      -3.39   15.43    0.58
#   4   -7.83   -0.02    0.00    4.13    0.15    0.00    0.00      -3.56   16.17    0.60
#   5    0.29   -1.08    0.22    0.25   -0.18    0.00    0.00      -0.49    0.68   -0.49
#   6    4.30   -0.98    0.19   -1.09   -0.09    0.00    0.00       2.33   -2.95   -0.24
#   7    3.25   -1.14    0.17   -0.56   -0.09    0.00    0.00       1.62   -1.13   -0.19
#   8    4.76   -1.82    0.92   -0.36   -0.10    0.00    0.00       3.41   -0.85   -0.24
#   9   -9.65   -1.31    0.23   -0.12   -0.24    0.00    0.00     -11.10   -0.34   -0.66
#  10    5.45   -2.07    1.22    0.67    0.13    0.00    0.00       5.41    1.84    0.37
#  11   12.57   -0.87    0.07    0.93    0.58    0.00    0.00      13.26    3.14    1.96
#  12   -1.20   -0.46    0.05   -0.26   -0.05    0.00    0.00      -1.92   -1.22   -0.23
#  13    0.61   -0.73    0.10    0.13   -0.10    0.00    0.00       0.02    0.36   -0.27
#  14    0.95   -0.90    0.13    0.25   -0.12    0.00    0.00       0.30    0.87   -0.43
#  15    0.76   -1.41    0.34    0.19   -0.16    0.00    0.00      -0.28    0.57   -0.47
#  16    0.40   -0.93    0.16    0.17   -0.12    0.00    0.00      -0.32    0.66   -0.47
#  17    0.36   -0.47    0.04    0.20   -0.07    0.00    0.00       0.06    1.29   -0.47
#  18    0.45   -0.35    0.02    0.26   -0.06    0.00    0.00       0.32    2.01   -0.45
#  19    0.51   -0.46    0.04    0.23   -0.06    0.00    0.00       0.26    1.53   -0.39
#  20    0.21   -0.21    0.00    0.03   -0.02    0.00    0.00       0.02    0.27   -0.13
#  21    0.05   -0.17    0.00    0.09   -0.02    0.00    0.00      -0.05    0.92   -0.17
#  22    0.00   -0.15    0.00    0.02   -0.02    0.00    0.00      -0.15    0.28   -0.31
#  23   -0.08   -0.23    0.01    0.06   -0.04    0.00    0.00      -0.28    0.66   -0.45
#  24   -0.08   -0.13    0.00    0.00   -0.03    0.00    0.00      -0.23    0.06   -0.47
#  25    0.00   -0.05    0.00   -0.01   -0.01    0.00    0.00      -0.07   -0.21   -0.33
#  26   -0.17   -0.02    0.00    0.02    0.01    0.00    0.00      -0.16    1.32    0.52
#  27    0.10   -0.01    0.00   -0.01    0.00    0.00    0.00       0.07   -0.86    0.02
#  28   -0.18   -0.04    0.00    0.13    0.01    0.00    0.00      -0.08    5.74    0.34
#  29    0.05   -0.06    0.00   -0.01   -0.01    0.00    0.00      -0.03   -0.51   -0.32
#  30   -0.05   -0.11    0.00    0.17   -0.02    0.00    0.00      -0.01    3.73   -0.41
#  31    0.64   -0.29    0.03   -1.38   -0.02    0.00    0.00      -1.01  -13.75   -0.16
#  32   -1.46   -0.44    0.06    2.74   -0.04    0.00    0.00       0.87   21.03   -0.29
#  33   -0.20   -0.39    0.06    3.07   -0.07    0.00    0.00       2.47   25.37   -0.56
#  34   -4.31   -0.39    0.18    0.88   -0.07    0.00    0.00      -3.71    3.51   -0.28
#  35   -5.82   -0.57    0.24    1.29   -0.11    0.00    0.00      -4.97    3.23   -0.28
#  36   -2.78   -0.92    1.46    0.63   -0.09    0.00    0.00      -1.70    1.95   -0.28
#  37   -1.55   -0.16    0.01    0.34   -0.04    0.00    0.00      -1.40    2.35   -0.28
#  38   -3.49   -0.43    0.06    0.31   -0.14    0.00    0.00      -3.69    0.60   -0.28
#  39   -2.04   -0.33    0.05    0.14   -0.09    0.00    0.00      -2.27    0.45   -0.28
#  40   -4.08   -0.92    1.35    0.20   -0.10    0.00    0.00      -3.55    0.54   -0.28
#  41   -3.20   -1.71    5.03    0.48   -0.13    0.00    0.00       0.47    1.03   -0.28
#  42   -9.63   -0.02    0.00   -0.44    0.11    0.00    0.00      -9.98   -2.30    0.57
#  43   -0.34   -0.19    0.06   -0.10   -0.04    0.00    0.00      -0.61   -0.65   -0.25
#  44   -0.70   -0.31    0.05   -0.15   -0.10    0.00    0.00      -1.22   -0.41   -0.28
#  45   -0.18   -0.29    0.06   -0.09   -0.07    0.00    0.00      -0.56   -0.33   -0.28
#  46   -0.44   -0.45    0.12   -0.10   -0.10    0.00    0.00      -0.96   -0.27   -0.28
#  47   -0.04   -0.15    0.01   -0.06   -0.05    0.00    0.00      -0.29   -0.35   -0.28
#  48   -0.02   -0.05    0.00   -0.05   -0.01    0.00    0.00      -0.12   -1.09   -0.28
#  49   -0.38   -0.03    0.00   -0.04   -0.01    0.00    0.00      -0.47   -1.41   -0.27
#  50   -0.77   -0.05    0.00   -0.03   -0.01    0.00    0.00      -0.85   -0.59   -0.22
#  51    0.03   -0.08    0.00   -0.06   -0.01    0.00    0.00      -0.12   -0.78   -0.20
#  52    0.06   -0.05    0.00   -0.05   -0.01    0.00    0.00      -0.05   -1.02   -0.27
#  53    0.14   -0.11    0.02   -0.07   -0.03    0.00    0.00      -0.06   -0.67   -0.28
#  54    0.10   -0.04    0.00    0.01   -0.01    0.00    0.00       0.06    0.19   -0.28
#  55    0.04    0.00    0.00    0.00    0.00    0.00    0.00       0.04   -0.24   -0.28
#  56    0.03    0.00    0.00    0.00    0.00    0.00    0.00       0.03   -0.10   -0.28

@<TRIPOS>MOLECULE
       AVX17556_0       100
   56    59     0     0     0



@<TRIPOS>ATOM
      1 N1          1.0914   -19.1400     0.2423 N.4        1          -0.6382
      2 H1          1.6322   -18.8000     1.0233 H          1           0.4353
      3 H2          0.9282   -20.1297     0.3518 H          1           0.4343
      4 H3          0.2074   -18.6549     0.2087 H          1           0.4367
      5 C1          1.8292   -18.9006    -1.0052 C.3        1          -0.0090
      6 C2          3.1698   -19.6360    -0.9543 C.3        1          -0.1538
      7 C3          3.9381   -19.3867    -2.2535 C.3        1          -0.0999
      8 C4          3.1184   -19.9023    -3.4379 C.3        1          -0.1454
      9 C5          2.8744   -21.3805    -3.2746 C.2        1           0.5168
     10 O1          3.8125   -22.1466    -3.2120 O.2        1          -0.5466
     11 N2          1.6138   -21.8510    -3.1982 N.am       1          -0.7076
     12 C6          1.3766   -23.2879    -3.0394 C.3        1           0.1458
     13 C7          1.1521   -23.9642    -4.3961 C.3        1          -0.0867
     14 C8         -0.3191   -23.7828    -4.6745 C.ar       1          -0.1071
     15 C9         -1.0330   -23.8217    -5.8601 C.ar       1          -0.1118
     16 C10        -2.3996   -23.6208    -5.8536 C.ar       1          -0.1261
     17 C11        -3.0565   -23.3807    -4.6610 C.ar       1          -0.1215
     18 C12        -2.3453   -23.3420    -3.4775 C.ar       1          -0.0882
     19 C13        -0.9755   -23.5428    -3.4828 C.ar       1          -0.0658
     20 C14         0.0298   -23.5539    -2.3583 C.3        1          -0.0341
     21 C15         0.0420   -24.9189    -1.6674 C.3        1          -0.0671
     22 C16        -1.3092   -25.1841    -1.0552 C.ar       1          -0.0292
     23 C17        -2.2829   -25.8266    -1.7871 C.ar       1          -0.1276
     24 C18        -3.5284   -26.0747    -1.2324 C.ar       1          -0.1027
     25 C19        -3.8073   -25.6799     0.0637 C.ar       1          -0.0081
     26 O2         -4.9230   -25.7955     0.8379 O.3        1          -0.3208
     27 C20        -4.7896   -24.8288     1.8908 C.3        1           0.2059
     28 O3         -3.3638   -24.7564     2.0391 O.3        1          -0.2754
     29 C21        -2.8331   -25.0291     0.8179 C.ar       1           0.0746
     30 C22        -1.5730   -24.7825     0.2597 C.ar       1          -0.1204
     31 C23        -0.5341   -24.1007     1.0483 C.2        1           0.5183
     32 O4          0.2424   -24.7540     1.7316 O.co2      1          -0.6674
     33 O5         -0.4473   -22.8806     1.0207 O.co2      1          -0.6711
     34 H4          1.2451   -19.2678    -1.8490 H          1           0.1345
     35 H5          2.0056   -17.8314    -1.1236 H          1           0.1352
     36 H6          3.7539   -19.2688    -0.1106 H          1           0.0891
     37 H7          2.9931   -20.7052    -0.8360 H          1           0.0878
     38 H8          4.1147   -18.3176    -2.3718 H          1           0.0812
     39 H9          4.8932   -19.9108    -2.2172 H          1           0.0831
     40 H10         2.1633   -19.3782    -3.4744 H          1           0.0958
     41 H11         3.6658   -19.7245    -4.3636 H          1           0.0940
     42 H12         0.8635   -21.2382    -3.2482 H          1           0.4031
     43 H13         2.1932   -23.7608    -2.4939 H          1           0.1027
     44 H14         1.7477   -23.4757    -5.1674 H          1           0.0779
     45 H15         1.3999   -25.0240    -4.3380 H          1           0.0740
     46 H16        -0.5202   -24.0091    -6.7919 H          1           0.1136
     47 H17        -2.9546   -23.6509    -6.7796 H          1           0.1190
     48 H18        -4.1249   -23.2231    -4.6547 H          1           0.1216
     49 H19        -2.8587   -23.1540    -2.5461 H          1           0.1311
     50 H20        -0.1948   -22.7654    -1.6400 H          1           0.1081
     51 H21         0.2680   -25.6945    -2.3991 H          1           0.1216
     52 H22         0.8023   -24.9239    -0.8862 H          1           0.0527
     53 H23        -2.0746   -26.1388    -2.7998 H          1           0.1256
     54 H24        -4.2852   -26.5787    -1.8151 H          1           0.1199
     55 H25        -5.2002   -23.8650     1.5900 H          1           0.1230
     56 H26        -5.2600   -25.1833     2.8080 H          1           0.0696
@<TRIPOS>BOND
     1    1    2 1
     2    1    3 1
     3    1    4 1
     4    1    5 1
     5    5    6 1
     6    5   34 1
     7    5   35 1
     8    6    7 1
     9    6   36 1
    10    6   37 1
    11    7    8 1
    12    7   38 1
    13    7   39 1
    14    8    9 1
    15    8   40 1
    16    8   41 1
    17    9   10 2
    18    9   11 am
    19   11   12 1
    20   11   42 1
    21   12   20 1
    22   12   13 1
    23   12   43 1
    24   13   14 1
    25   13   44 1
    26   13   45 1
    27   14   19 ar
    28   14   15 ar
    29   15   16 ar
    30   15   46 1
    31   16   17 ar
    32   16   47 1
    33   17   18 ar
    34   17   48 1
    35   18   19 ar
    36   18   49 1
    37   19   20 1
    38   20   21 1
    39   20   50 1
    40   21   22 1
    41   21   51 1
    42   21   52 1
    43   22   30 ar
    44   22   23 ar
    45   23   24 ar
    46   23   53 1
    47   24   25 ar
    48   24   54 1
    49   25   29 ar
    50   25   26 1
    51   26   27 1
    52   27   28 1
    53   27   55 1
    54   27   56 1
    55   28   29 1
    56   29   30 ar
    57   30   31 1
    58   31   32 1
    59   31   33 2
