pC2A03_0, 3
##########                 Name:             pC2A03_0
##########          Protonation:                  100
##########               SMILES:   c1cc(ccc1n2cc3n(c2=O)CCCC3)Br
##########            Long Name:   2-(4-bromophenyl)-5,6,7,8-tetrahydroimidazo[1,5-a]pyridin-3-one
##########          FlexRecCode: 1
##########               Number:                   94
##########   Ligand Source File: /raid1/people/rgc/Examples/sampl4/screening/ligands/build_1//sampl4-hivint-00000
##########           GlobalRank: 17
##########                 Rank:                    1
##########               Setnum:                    1
##########             Matchnum:                 5384
##########                Cloud:                    1
##########        Electrostatic:            -9.384277
##########        Van der Waals:           -29.005636
##########  Ligand Polar Desolv:             4.042152
########## Ligand Apolar Desolv:            -3.998652
##########      Internal Energy:             0.000000
##########      Receptor Energy: 0.0
########## Receptor Desolvation:             0.000000
########## Receptor Hydrophobic:             0.000000
##########         Total Energy: -38.35
##########        Ligand Charge:             0.000000
##########            Arbitrary:    +999.9990
##########     heavy atom count:   17
##########           pose count:    1
##########        Ligand Energy:             0.000000
# num electro vdwattr vdwrepu polsolv apolsol rdesolv rhydroe totalscore fullpol fullapo
#   1   -0.49   -9.44    3.38    0.06   -0.76    0.00    0.00      -7.26    0.08   -1.09
#   2   -1.29   -2.41    0.52    0.16   -0.19    0.00    0.00      -3.20    0.26   -0.30
#   3   -0.39   -2.83    0.90   -0.02   -0.26    0.00    0.00      -2.59   -0.03   -0.46
#   4   -0.10   -2.46    0.74   -0.06   -0.22    0.00    0.00      -2.10   -0.12   -0.44
#   5    0.26   -1.77    0.31   -0.23   -0.30    0.00    0.00      -1.73   -0.54   -0.70
#   6   -1.49   -2.03    0.46    0.50   -0.21    0.00    0.00      -2.75    1.07   -0.44
#   7   -0.89   -2.47    0.47    0.16   -0.25    0.00    0.00      -2.99    0.29   -0.46
#   8    3.25   -1.36    0.16    0.67    0.48    0.00    0.00       3.20    1.76    1.27
#   9    0.39   -1.75    0.41   -0.02   -0.37    0.00    0.00      -1.34   -0.05   -0.89
#  10   -1.01   -1.37    0.24    0.02   -0.24    0.00    0.00      -2.36    0.05   -0.69
#  11    1.96   -1.25    0.28   -0.12   -0.12    0.00    0.00       0.75   -0.27   -0.27
#  12    4.25   -1.31    0.29   -0.27   -0.10    0.00    0.00       2.87   -0.67   -0.25
#  13    2.73   -0.68    0.07   -0.14   -0.08    0.00    0.00       1.91   -0.44   -0.25
#  14   -1.41   -0.58    0.09   -0.02   -0.13    0.00    0.00      -2.06   -0.10   -0.53
#  15    7.00   -0.98    0.09    0.44    0.48    0.00    0.00       7.03    1.55    1.71
#  16   -2.86   -1.01    0.11   -1.37   -0.65    0.00    0.00      -5.78   -4.46   -2.12
#  17   -2.30   -0.92    0.20    2.11    0.11    0.00    0.00      -0.80    7.53    0.38
#  18    0.60   -0.65    0.27    0.33   -0.14    0.00    0.00       0.41    0.65   -0.28
#  19   -0.61   -0.49    0.14    0.48   -0.10    0.00    0.00      -0.59    1.07   -0.23
#  20    2.20   -0.44    0.19   -0.42   -0.07    0.00    0.00       1.47   -1.22   -0.19
#  21    2.62   -0.77    0.27   -0.25   -0.14    0.00    0.00       1.72   -0.50   -0.28
#  22   -3.87   -0.41    0.07    0.66   -0.09    0.00    0.00      -3.64    1.75   -0.24
#  23   -4.27   -0.45    0.11    0.48   -0.13    0.00    0.00      -4.25    1.08   -0.28
#  24   -3.93   -0.66    0.75    0.26   -0.09    0.00    0.00      -3.68    0.82   -0.28
#  25   -2.55   -0.59    0.37    0.10   -0.11    0.00    0.00      -2.77    0.27   -0.28
#  26   -3.13   -0.93    0.73    0.37   -0.12    0.00    0.00      -3.08    0.83   -0.28
#  27   -1.31   -0.24    0.07    0.12   -0.06    0.00    0.00      -1.42    0.61   -0.28
#  28   -1.72   -0.20    0.02    0.05   -0.06    0.00    0.00      -1.90    0.25   -0.28
#  29   -0.53   -0.37    0.19   -0.01   -0.06    0.00    0.00      -0.79   -0.05   -0.28
#  30   -0.51   -0.10    0.01   -0.02   -0.02    0.00    0.00      -0.64   -0.20   -0.28

@<TRIPOS>MOLECULE
         pC2A03_0       100
   30    32     0     0     0



@<TRIPOS>ATOM
      1 Br1         9.3528   -25.7100    -0.7610 Br         1          -0.0461
      2 C1          7.8946   -24.5062    -0.7377 C.ar       1          -0.1107
      3 C2          7.7069   -23.6284    -1.7907 C.ar       1          -0.0630
      4 C3          6.6427   -22.7483    -1.7761 C.ar       1          -0.1404
      5 C4          5.7605   -22.7451    -0.7039 C.ar       1           0.1810
      6 C5          5.9509   -23.6273     0.3512 C.ar       1          -0.1391
      7 C6          7.0139   -24.5088     0.3295 C.ar       1          -0.0609
      8 N1          4.6802   -21.8527    -0.6864 N.am       1          -0.4795
      9 C7          4.6489   -20.5968    -1.2821 C.2        1          -0.0213
     10 C8          3.4644   -20.0640    -1.0381 C.2        1           0.0418
     11 C9          2.9275   -18.7309    -1.5002 C.3        1          -0.0509
     12 C10         1.7143   -18.3817    -0.6267 C.3        1          -0.1249
     13 C11         0.7588   -19.5788    -0.5936 C.3        1          -0.1351
     14 C12         1.3819   -20.7082     0.2352 C.3        1           0.1312
     15 N2          2.7331   -20.9690    -0.2722 N.am       1          -0.5311
     16 C13         3.4863   -22.0648    -0.0934 C.2        1           0.6591
     17 O1          3.1524   -23.0731     0.5021 O.2        1          -0.5520
     18 H1          8.3933   -23.6314    -2.6244 H          1           0.1412
     19 H2          6.4971   -22.0628    -2.5980 H          1           0.1384
     20 H3          5.2664   -23.6266     1.1866 H          1           0.1631
     21 H4          7.1604   -25.1978     1.1482 H          1           0.1407
     22 H5          5.4497   -20.1383    -1.8433 H          1           0.1865
     23 H6          3.6953   -17.9653    -1.3879 H          1           0.0937
     24 H7          2.6229   -18.7981    -2.5445 H          1           0.0900
     25 H8          2.0477   -18.1535     0.3858 H          1           0.0712
     26 H9          1.2003   -17.5166    -1.0459 H          1           0.0809
     27 H10        -0.1866   -19.2766    -0.1430 H          1           0.0904
     28 H11         0.5810   -19.9297    -1.6102 H          1           0.0755
     29 H12         1.4356   -20.4076     1.2815 H          1           0.0801
     30 H13         0.7754   -21.6088     0.1409 H          1           0.0903
@<TRIPOS>BOND
     1    1    2 1
     2    2    7 ar
     3    2    3 ar
     4    3    4 ar
     5    3   18 1
     6    4    5 ar
     7    4   19 1
     8    5    6 ar
     9    5    8 1
    10    6    7 ar
    11    6   20 1
    12    7   21 1
    13    8   16 am
    14    8    9 1
    15    9   10 2
    16    9   22 1
    17   10   15 1
    18   10   11 1
    19   11   12 1
    20   11   23 1
    21   11   24 1
    22   12   13 1
    23   12   25 1
    24   12   26 1
    25   13   14 1
    26   13   27 1
    27   13   28 1
    28   14   15 1
    29   14   29 1
    30   14   30 1
    31   15   16 am
    32   16   17 2
