AVX101118_1, 3
##########                 Name:          AVX101118_0
##########          Protonation:                   78
##########               SMILES:   C[NH+](Cc1ccccc1C(=O)NCC2CCCCC2)Cc3ccc4c(c3C(=O)[O-])OCCO4
##########            Long Name:   nyl]methyl-methyl-ammonio]methyl]-2,3-dihydro-1,4-benzodioxine-5-carboxylate
##########          FlexRecCode: 1
##########               Number:                   29
##########   Ligand Source File: /raid1/people/rgc/Examples/sampl4/screening/ligands/build_1//sampl4-hivint-00000
##########           GlobalRank: 34
##########                 Rank:                    1
##########               Setnum:                   80
##########             Matchnum:                 6274
##########                Cloud:                    1
##########        Electrostatic:           -37.647606
##########        Van der Waals:           -17.036221
##########  Ligand Polar Desolv:            15.969730
########## Ligand Apolar Desolv:            -2.440970
##########      Internal Energy:             0.000000
##########      Receptor Energy: 0.0
########## Receptor Desolvation:             0.000000
########## Receptor Hydrophobic:             0.000000
##########         Total Energy: -41.16
##########        Ligand Charge:             0.000000
##########            Arbitrary:    +999.9990
##########     heavy atom count:   33
##########           pose count:    1
##########        Ligand Energy:             0.000000
# num electro vdwattr vdwrepu polsolv apolsol rdesolv rhydroe totalscore fullpol fullapo
#   1   -0.25   -0.14    0.00   -0.09   -0.03    0.00    0.00      -0.51   -1.05   -0.41
#   2   -2.08   -0.23    0.00   -0.34    0.02    0.00    0.00      -2.62   -3.23    0.16
#   3    2.02    0.00    0.00    0.15    0.01    0.00    0.00       2.18    4.37    0.32
#   4    0.06   -0.22    0.01    0.05   -0.04    0.00    0.00      -0.15    0.36   -0.30
#   5   -0.07   -0.13    0.00   -0.04   -0.01    0.00    0.00      -0.26   -0.84   -0.30
#   6   -0.08   -0.09    0.00   -0.04   -0.01    0.00    0.00      -0.22   -1.16   -0.40
#   7   -0.05   -0.04    0.00   -0.02   -0.01    0.00    0.00      -0.12   -1.12   -0.47
#   8   -0.05   -0.03    0.00   -0.02   -0.01    0.00    0.00      -0.11   -1.30   -0.47
#   9   -0.04   -0.06    0.00   -0.02   -0.01    0.00    0.00      -0.13   -0.92   -0.44
#  10   -0.07   -0.10    0.00   -0.05   -0.02    0.00    0.00      -0.23   -1.31   -0.40
#  11    0.32   -0.20    0.00    0.27   -0.05    0.00    0.00       0.36    3.54   -0.63
#  12   -0.89   -0.24    0.01   -0.21    0.03    0.00    0.00      -1.30   -1.76    0.29
#  13   -0.29   -0.24    0.01   -0.51    0.22    0.00    0.00      -0.82   -5.17    2.20
#  14    0.06   -0.32    0.03    0.10   -0.06    0.00    0.00      -0.19    0.60   -0.38
#  15   -0.03   -0.23    0.01   -0.06   -0.02    0.00    0.00      -0.32   -0.43   -0.15
#  16   -0.01   -0.37    0.05   -0.11   -0.04    0.00    0.00      -0.48   -0.59   -0.22
#  17    0.00   -0.47    0.04   -0.12   -0.06    0.00    0.00      -0.61   -0.54   -0.25
#  18   -0.02   -1.18    0.28   -0.12   -0.09    0.00    0.00      -1.12   -0.33   -0.25
#  19   -0.05   -0.77    0.09   -0.10   -0.08    0.00    0.00      -0.91   -0.32   -0.25
#  20   -0.05   -0.42    0.05   -0.08   -0.05    0.00    0.00      -0.56   -0.36   -0.22
#  21    0.85   -0.44    0.03    0.01   -0.06    0.00    0.00       0.39    0.04   -0.26
#  22   -1.52   -0.50    0.02    0.03   -0.08    0.00    0.00      -2.04    0.17   -0.39
#  23   -1.81   -0.36    0.01   -0.06   -0.05    0.00    0.00      -2.26   -0.43   -0.34
#  24   -1.10   -0.49    0.02   -0.02   -0.09    0.00    0.00      -1.68   -0.12   -0.46
#  25    0.66   -0.57    0.02   -0.02   -0.07    0.00    0.00       0.02   -0.08   -0.30
#  26   -3.94   -0.81    0.06    0.43    0.21    0.00    0.00      -4.05    1.39    0.68
#  27    0.32   -0.98    0.15   -0.04   -0.05    0.00    0.00      -0.60   -0.10   -0.14
#  28    0.36   -1.11    0.45    0.02   -0.05    0.00    0.00      -0.33    0.06   -0.14
#  29  -11.60   -2.12    1.74    1.97    0.10    0.00    0.00      -9.90    5.52    0.27
#  30    3.06   -0.89    0.14   -0.16   -0.08    0.00    0.00       2.06   -0.59   -0.30
#  31   -3.19   -0.87    0.09    0.90   -0.13    0.00    0.00      -3.19    2.83   -0.41
#  32   20.35   -1.98    0.58   -4.72   -0.07    0.00    0.00      14.17  -11.01   -0.17
#  33  -27.50   -3.36    4.74    6.61   -0.14    0.00    0.00     -19.65   15.53   -0.33
#  34  -28.79   -3.48    1.55   11.41   -0.30    0.00    0.00     -19.61   22.17   -0.59
#  35    0.56   -0.07    0.00    0.08   -0.01    0.00    0.00       0.57    1.47   -0.18
#  36    0.63   -0.04    0.00    0.13   -0.01    0.00    0.00       0.71    2.97   -0.22
#  37    0.15   -0.02    0.00    0.05   -0.01    0.00    0.00       0.18    1.99   -0.28
#  38    0.34   -0.10    0.00    0.06   -0.02    0.00    0.00       0.29    0.60   -0.20
#  39    0.21   -0.10    0.00    0.20   -0.03    0.00    0.00       0.29    1.94   -0.27
#  40    0.14   -0.02    0.00    0.06   -0.01    0.00    0.00       0.18    2.72   -0.28
#  41    0.08    0.00    0.00    0.02    0.00    0.00    0.00       0.09    2.13   -0.28
#  42    0.06    0.00    0.00    0.01    0.00    0.00    0.00       0.06    1.99   -0.28
#  43    0.06   -0.01    0.00    0.03    0.00    0.00    0.00       0.07    2.05   -0.22
#  44    0.15    0.00    0.00    0.12    0.01    0.00    0.00       0.28    4.41    0.39
#  45    0.10   -0.10    0.01    0.02   -0.03    0.00    0.00      -0.01    0.20   -0.28
#  46    0.02   -0.23    0.10    0.01   -0.05    0.00    0.00      -0.15    0.03   -0.28
#  47    0.02   -0.04    0.00    0.03   -0.01    0.00    0.00       0.00    0.75   -0.28
#  48    0.03   -0.13    0.02    0.01   -0.04    0.00    0.00      -0.11    0.11   -0.28
#  49    0.00   -0.19    0.12    0.09   -0.03    0.00    0.00      -0.01    0.70   -0.24
#  50   -0.01   -0.15    0.02    0.04   -0.04    0.00    0.00      -0.15    0.24   -0.28
#  51    0.00   -0.10    0.01    0.04   -0.03    0.00    0.00      -0.08    0.43   -0.28
#  52    0.01   -0.48    0.19    0.01   -0.09    0.00    0.00      -0.36    0.04   -0.28
#  53    0.01   -0.86    0.66    0.05   -0.11    0.00    0.00      -0.25    0.13   -0.28
#  54    0.04   -0.43    0.10    0.03   -0.10    0.00    0.00      -0.37    0.07   -0.28
#  55    0.02   -0.19    0.03    0.05   -0.05    0.00    0.00      -0.14    0.27   -0.28
#  56    0.03   -0.09    0.01    0.02   -0.03    0.00    0.00      -0.06    0.19   -0.28
#  57    0.03   -0.26    0.10    0.01   -0.05    0.00    0.00      -0.16    0.03   -0.28
#  58    2.52   -0.20    0.02   -0.06   -0.05    0.00    0.00       2.23   -0.30   -0.23
#  59    1.77   -0.22    0.03   -0.08   -0.05    0.00    0.00       1.45   -0.42   -0.26
#  60    0.79   -0.06    0.00    0.16   -0.01    0.00    0.00       0.88    2.41   -0.18
#  61    0.91   -0.15    0.01    0.16   -0.04    0.00    0.00       0.89    1.05   -0.28
#  62    2.35   -0.37    0.09    0.10   -0.09    0.00    0.00       2.09    0.32   -0.28
#  63    0.63   -0.51    0.20   -0.09   -0.10    0.00    0.00       0.14   -0.25   -0.28
#  64    2.77   -0.47    0.18   -0.20   -0.10    0.00    0.00       2.19   -0.55   -0.28
#  65    3.30   -0.29    0.16   -0.21   -0.07    0.00    0.00       2.90   -0.81   -0.28

@<TRIPOS>MOLECULE
      AVX101118_0        78
   65    68     0     0     0



@<TRIPOS>ATOM
      1 C1          7.8497   -21.4159   -24.2062 C.3        1          -0.0639
      2 N1          7.2435   -22.4558   -23.3640 N.4        1          -0.3784
      3 H1          6.9206   -23.2142   -23.9463 H          1           0.4146
      4 C2          6.1078   -21.8877   -22.6256 C.3        1           0.0370
      5 C3          5.0823   -21.3705   -23.6013 C.ar       1          -0.0859
      6 C4          5.1508   -20.0678   -24.0507 C.ar       1          -0.0990
      7 C5          4.2101   -19.5915   -24.9463 C.ar       1          -0.0864
      8 C6          3.1953   -20.4169   -25.3975 C.ar       1          -0.1006
      9 C7          3.1156   -21.7215   -24.9566 C.ar       1          -0.0812
     10 C8          4.0647   -22.2099   -24.0568 C.ar       1          -0.1221
     11 C9          3.9890   -23.6088   -23.5844 C.2        1           0.5528
     12 O1          4.9141   -24.3702   -23.7886 O.2        1          -0.5447
     13 N2          2.8941   -24.0396   -22.9270 N.am       1          -0.7102
     14 C10         2.8190   -25.4257   -22.4586 C.3        1           0.1178
     15 C11         1.6195   -26.1191   -23.1075 C.3        1          -0.0993
     16 C12         1.2358   -27.3507   -22.2848 C.3        1          -0.1158
     17 C13         0.0363   -28.0441   -22.9337 C.3        1          -0.1202
     18 C14         0.4035   -28.4744   -24.3553 C.3        1          -0.1229
     19 C15         0.7870   -27.2428   -25.1779 C.3        1          -0.1194
     20 C16         1.9867   -26.5495   -24.5291 C.3        1          -0.1130
     21 C17         8.2431   -22.9600   -22.4130 C.3        1           0.0673
     22 C18         9.1404   -23.9526   -23.1064 C.ar       1          -0.0905
     23 C19         8.5975   -24.9170   -23.9260 C.ar       1          -0.1640
     24 C20         9.4156   -25.8324   -24.5677 C.ar       1          -0.1011
     25 C21        10.7893   -25.7883   -24.3930 C.ar       1           0.0390
     26 O2         11.5791   -26.6928   -25.0341 O.3        1          -0.3085
     27 C22        12.9091   -26.8549   -24.5311 C.3        1           0.0191
     28 C23        13.5046   -25.4539   -24.3480 C.3        1           0.0110
     29 O3         12.6971   -24.7682   -23.3856 O.3        1          -0.2524
     30 C24        11.3530   -24.8217   -23.5682 C.ar       1           0.1031
     31 C25        10.5262   -23.8913   -22.9224 C.ar       1          -0.1131
     32 C26        11.1122   -22.8591   -22.0520 C.2        1           0.5208
     33 O4         11.4371   -21.7765   -22.5202 O.co2      1          -0.6891
     34 O5         11.2745   -23.0838   -20.8605 O.co2      1          -0.6418
     35 H2          8.1985   -20.5968   -23.5775 H          1           0.1292
     36 H3          8.6923   -21.8377   -24.7542 H          1           0.1112
     37 H4          7.1079   -21.0419   -24.9120 H          1           0.1227
     38 H5          5.6581   -22.6592   -22.0007 H          1           0.1595
     39 H6          6.4567   -21.0683   -21.9968 H          1           0.1322
     40 H7          5.9401   -19.4183   -23.7020 H          1           0.1424
     41 H8          4.2680   -18.5709   -25.2948 H          1           0.1401
     42 H9          2.4636   -20.0388   -26.0963 H          1           0.1397
     43 H10         2.3232   -22.3646   -25.3095 H          1           0.1339
     44 H11         2.1558   -23.4320   -22.7640 H          1           0.4031
     45 H12         3.7341   -25.9515   -22.7315 H          1           0.0769
     46 H13         2.7029   -25.4372   -21.3749 H          1           0.0775
     47 H14         0.7765   -25.4290   -23.1431 H          1           0.0781
     48 H15         2.0789   -28.0408   -22.2492 H          1           0.0672
     49 H16         0.9743   -27.0441   -21.2721 H          1           0.0578
     50 H17        -0.2371   -28.9215   -22.3477 H          1           0.0636
     51 H18        -0.8068   -27.3540   -22.9694 H          1           0.0618
     52 H19         1.2465   -29.1645   -24.3196 H          1           0.0631
     53 H20        -0.4512   -28.9683   -24.8176 H          1           0.0630
     54 H21         1.0488   -27.5494   -26.1907 H          1           0.0659
     55 H22        -0.0559   -26.5527   -25.2136 H          1           0.0623
     56 H23         2.2600   -25.6720   -25.1151 H          1           0.0673
     57 H24         2.8297   -27.2395   -24.4934 H          1           0.0680
     58 H25         8.8410   -22.1287   -22.0395 H          1           0.1592
     59 H26         7.7378   -23.4476   -21.5793 H          1           0.1450
     60 H27         7.5279   -24.9600   -24.0690 H          1           0.1136
     61 H28         8.9798   -26.5853   -25.2078 H          1           0.1350
     62 H29        12.8817   -27.3736   -23.5728 H          1           0.1227
     63 H30        13.5081   -27.4213   -25.2443 H          1           0.0782
     64 H31        14.5289   -25.5317   -23.9835 H          1           0.0765
     65 H32        13.4864   -24.9170   -25.2964 H          1           0.1245
@<TRIPOS>BOND
     1    1    2 1
     2    1   35 1
     3    1   36 1
     4    1   37 1
     5    2    3 1
     6    2    4 1
     7    2   21 1
     8    4    5 1
     9    4   38 1
    10    4   39 1
    11    5   10 ar
    12    5    6 ar
    13    6    7 ar
    14    6   40 1
    15    7    8 ar
    16    7   41 1
    17    8    9 ar
    18    8   42 1
    19    9   10 ar
    20    9   43 1
    21   10   11 1
    22   11   12 2
    23   11   13 am
    24   13   14 1
    25   13   44 1
    26   14   15 1
    27   14   45 1
    28   14   46 1
    29   15   20 1
    30   15   16 1
    31   15   47 1
    32   16   17 1
    33   16   48 1
    34   16   49 1
    35   17   18 1
    36   17   50 1
    37   17   51 1
    38   18   19 1
    39   18   52 1
    40   18   53 1
    41   19   20 1
    42   19   54 1
    43   19   55 1
    44   20   56 1
    45   20   57 1
    46   21   22 1
    47   21   58 1
    48   21   59 1
    49   22   31 ar
    50   22   23 ar
    51   23   24 ar
    52   23   60 1
    53   24   25 ar
    54   24   61 1
    55   25   30 ar
    56   25   26 1
    57   26   27 1
    58   27   28 1
    59   27   62 1
    60   27   63 1
    61   28   29 1
    62   28   64 1
    63   28   65 1
    64   29   30 1
    65   30   31 ar
    66   31   32 1
    67   32   33 1
    68   32   34 2
