AVX17715_0, 3
##########                 Name:           AVX17715_0
##########          Protonation:                   93
##########               SMILES:   COc1ccc(cc1)CNC(=O)c2ccccc2C[NH2+]Cc3ccc4c(c3C(=O)[O-])OCO4
##########            Long Name:   )methylcarbamoyl]phenyl]methylammonio]methyl]-1,3-benzodioxole-4-carboxylate
##########          FlexRecCode: 1
##########               Number:                  358
##########   Ligand Source File: /raid1/people/rgc/Examples/sampl4/screening/ligands/build_1//sampl4-hivint-00000
##########           GlobalRank: 28
##########                 Rank:                    1
##########               Setnum:                  116
##########             Matchnum:                28791
##########                Cloud:                    1
##########        Electrostatic:           -32.883560
##########        Van der Waals:           -20.844822
##########  Ligand Polar Desolv:            14.199214
########## Ligand Apolar Desolv:            -2.155285
##########      Internal Energy:             0.000000
##########      Receptor Energy: 0.0
########## Receptor Desolvation:             0.000000
########## Receptor Hydrophobic:             0.000000
##########         Total Energy: -41.68
##########        Ligand Charge:             0.000000
##########            Arbitrary:    +999.9990
##########     heavy atom count:   33
##########           pose count:    1
##########        Ligand Energy:             0.000000
# num electro vdwattr vdwrepu polsolv apolsol rdesolv rhydroe totalscore fullpol fullapo
#   1    0.00   -0.57    0.18    0.01    0.01    0.00    0.00      -0.38    0.04    0.03
#   2   -0.05   -1.44    1.00    0.02    0.24    0.00    0.00      -0.23    0.06    0.93
#   3    0.05   -0.91    0.25    0.02   -0.07    0.00    0.00      -0.67    0.09   -0.31
#   4   -0.11   -1.40    0.47   -0.24   -0.13    0.00    0.00      -1.40   -0.79   -0.42
#   5   -0.03   -1.20    0.64   -0.08   -0.11    0.00    0.00      -0.78   -0.34   -0.45
#   6   -0.07   -0.46    0.07   -0.13   -0.05    0.00    0.00      -0.65   -0.95   -0.37
#   7    0.08   -0.16    0.01    0.13   -0.04    0.00    0.00       0.03    1.53   -0.44
#   8   -0.45   -0.14    0.00   -0.42    0.15    0.00    0.00      -0.86   -6.67    2.32
#   9    0.46   -0.18    0.00    0.34   -0.04    0.00    0.00       0.59    4.96   -0.63
#  10   -0.47   -0.24    0.01   -0.51    0.03    0.00    0.00      -1.18   -4.96    0.29
#  11   -0.12   -0.13    0.00   -0.05   -0.02    0.00    0.00      -0.32   -1.00   -0.41
#  12   -0.06   -0.05    0.00   -0.02   -0.01    0.00    0.00      -0.14   -0.68   -0.44
#  13   -0.08   -0.05    0.00   -0.02   -0.01    0.00    0.00      -0.16   -0.77   -0.47
#  14   -0.08   -0.14    0.00   -0.03   -0.02    0.00    0.00      -0.27   -0.55   -0.47
#  15   -0.11   -0.30    0.01   -0.08   -0.06    0.00    0.00      -0.54   -0.58   -0.44
#  16   -0.11   -0.31    0.01   -0.06   -0.04    0.00    0.00      -0.51   -0.58   -0.37
#  17    0.08   -0.67    0.12    0.11   -0.08    0.00    0.00      -0.44    0.45   -0.35
#  18   -1.90   -0.62    0.06   -0.82    0.15    0.00    0.00      -3.14   -3.46    0.65
#  19    0.88   -0.01    0.00    0.25    0.03    0.00    0.00       1.15    4.45    0.44
#  20    3.74   -0.01    0.00    0.12    0.04    0.00    0.00       3.89    1.35    0.44
#  21    0.62   -1.90    1.07    0.15   -0.13    0.00    0.00      -0.19    0.40   -0.35
#  22   -2.10   -2.44    1.93   -0.03   -0.12    0.00    0.00      -2.77   -0.10   -0.37
#  23   -1.14   -2.10    0.98   -0.12   -0.15    0.00    0.00      -2.54   -0.36   -0.45
#  24   -1.25   -1.46    0.35   -0.06   -0.16    0.00    0.00      -2.58   -0.18   -0.47
#  25    0.62   -1.21    0.24    0.00   -0.12    0.00    0.00      -0.47    0.00   -0.33
#  26   -3.95   -1.17    0.17    0.80    0.21    0.00    0.00      -3.94    1.94    0.52
#  27    3.20   -0.98    0.24   -0.48    0.01    0.00    0.00       1.98   -1.20    0.02
#  28   -7.10   -0.95    0.08    1.86    0.13    0.00    0.00      -5.98    4.85    0.34
#  29    1.90   -1.32    0.42   -0.01   -0.11    0.00    0.00       0.89   -0.04   -0.32
#  30   -2.96   -1.77    0.96    0.58   -0.15    0.00    0.00      -3.34    1.61   -0.41
#  31   18.80   -1.85    0.45   -3.42   -0.06    0.00    0.00      13.92   -8.08   -0.15
#  32  -22.39   -1.58    0.82    3.20   -0.10    0.00    0.00     -20.05    8.89   -0.29
#  33  -29.86   -3.24    1.36    9.77   -0.29    0.00    0.00     -22.26   18.72   -0.56
#  34   -0.02   -0.27    0.01   -0.03   -0.05    0.00    0.00      -0.36   -0.29   -0.45
#  35   -0.04   -0.37    0.02   -0.05   -0.07    0.00    0.00      -0.51   -0.37   -0.46
#  36   -0.02   -0.22    0.07    0.09   -0.05    0.00    0.00      -0.12    0.55   -0.28
#  37    0.00   -0.05    0.00    0.02   -0.01    0.00    0.00      -0.04    0.35   -0.27
#  38    0.01   -0.16    0.03    0.04   -0.04    0.00    0.00      -0.12    0.31   -0.26
#  39    0.09   -0.42    0.15    0.25   -0.08    0.00    0.00      -0.01    0.70   -0.22
#  40    0.11   -0.26    0.10    0.27   -0.06    0.00    0.00       0.16    1.30   -0.28
#  41    0.04   -0.08    0.01    0.05   -0.02    0.00    0.00       0.00    0.71   -0.28
#  42    0.03   -0.02    0.00    0.02    0.00    0.00    0.00       0.03    0.91   -0.28
#  43    0.23    0.00    0.00    0.08    0.01    0.00    0.00       0.32    4.35    0.43
#  44    0.08    0.00    0.00    0.02    0.00    0.00    0.00       0.09    1.83   -0.22
#  45    0.09    0.00    0.00    0.01    0.00    0.00    0.00       0.09    1.30   -0.28
#  46    0.14   -0.03    0.00    0.02   -0.01    0.00    0.00       0.12    0.74   -0.28
#  47    0.57   -0.11    0.01    0.07   -0.04    0.00    0.00       0.49    0.46   -0.28
#  48    0.39   -0.57    0.39    0.23   -0.07    0.00    0.00       0.37    0.91   -0.28
#  49    0.27   -0.21    0.03    0.38   -0.04    0.00    0.00       0.43    1.84   -0.21
#  50    3.35   -1.28    1.88    0.04   -0.08    0.00    0.00       3.92    0.11   -0.21
#  51    0.91   -0.93    0.87    0.98   -0.11    0.00    0.00       1.72    2.43   -0.28
#  52    0.73   -0.53    0.35    0.86   -0.09    0.00    0.00       1.34    2.81   -0.28
#  53    1.05   -0.26    0.04    0.28   -0.08    0.00    0.00       1.03    1.00   -0.28
#  54    2.01   -0.82    1.09   -0.17   -0.09    0.00    0.00       2.02   -0.50   -0.28
#  55    1.00   -0.21    0.02   -0.08   -0.06    0.00    0.00       0.68   -0.39   -0.28
#  56    0.04   -0.02    0.00    0.02   -0.01    0.00    0.00       0.03    1.09   -0.28
#  57    0.03   -0.04    0.00    0.01   -0.01    0.00    0.00      -0.02    0.20   -0.28

@<TRIPOS>MOLECULE
       AVX17715_0        93
   57    60     0     0     0



@<TRIPOS>ATOM
      1 C1          2.2936   -16.2494   -15.4744 C.3        1           0.0249
      2 O1          3.4846   -16.6781   -16.1378 O.3        1          -0.3151
      3 C2          3.3322   -17.3189   -17.3265 C.ar       1           0.1421
      4 C3          4.4457   -17.7674   -18.0218 C.ar       1          -0.2108
      5 C4          4.2881   -18.4189   -19.2297 C.ar       1          -0.0565
      6 C5          3.0219   -18.6238   -19.7459 C.ar       1          -0.1594
      7 C6          2.8528   -19.3343   -21.0642 C.3        1           0.1654
      8 N1          3.8195   -18.8071   -22.0305 N.am       1          -0.7092
      9 C7          4.7295   -19.6288   -22.5901 C.2        1           0.5605
     10 O2          4.7482   -20.8073   -22.2930 O.2        1          -0.5535
     11 C8          5.7052   -19.0967   -23.5653 C.ar       1          -0.1270
     12 C9          5.2611   -18.4960   -24.7445 C.ar       1          -0.0839
     13 C10         6.1766   -18.0012   -25.6500 C.ar       1          -0.1021
     14 C11         7.5326   -18.1000   -25.3916 C.ar       1          -0.0853
     15 C12         7.9792   -18.6941   -24.2250 C.ar       1          -0.0908
     16 C13         7.0738   -19.1880   -23.3083 C.ar       1          -0.0878
     17 C14         7.5621   -19.8298   -22.0351 C.3        1           0.0415
     18 N2          7.7579   -21.2688   -22.2560 N.4        1          -0.4814
     19 H1          6.8826   -21.6891   -22.5303 H          1           0.4089
     20 H2          8.4407   -21.4072   -22.9859 H          1           0.4277
     21 C15         8.2339   -21.8944   -21.0152 C.3        1           0.0578
     22 C16         8.4348   -23.3707   -21.2418 C.ar       1          -0.1185
     23 C17         7.3973   -24.2491   -21.0211 C.ar       1          -0.0986
     24 C18         7.5734   -25.6076   -21.2275 C.ar       1          -0.1053
     25 C19         8.7944   -26.0987   -21.6579 C.ar       1           0.0383
     26 O3          9.2136   -27.3694   -21.9291 O.3        1          -0.3092
     27 C20        10.4115   -27.2186   -22.7139 C.3        1           0.2036
     28 O4         10.9338   -25.9428   -22.2982 O.3        1          -0.2718
     29 C21         9.8537   -25.2238   -21.8857 C.ar       1           0.0790
     30 C22         9.6740   -23.8491   -21.6821 C.ar       1          -0.1121
     31 C23        10.7843   -22.9139   -21.9248 C.2        1           0.5216
     32 O5         10.9316   -22.4134   -23.0314 O.co2      1          -0.6990
     33 O6         11.5598   -22.6371   -21.0200 O.co2      1          -0.6336
     34 C24         1.9106   -18.1781   -19.0546 C.ar       1          -0.0575
     35 C25         2.0625   -17.5307   -17.8438 C.ar       1          -0.1537
     36 H3          2.5565   -15.7537   -14.5399 H          1           0.1040
     37 H4          1.7515   -15.5536   -16.1148 H          1           0.0577
     38 H5          1.6644   -17.1140   -15.2626 H          1           0.0582
     39 H6          5.4350   -17.6070   -17.6193 H          1           0.1321
     40 H7          5.1547   -18.7683   -19.7714 H          1           0.1276
     41 H8          3.0228   -20.4020   -20.9258 H          1           0.0835
     42 H9          1.8414   -19.1727   -21.4370 H          1           0.0823
     43 H10         3.8046   -17.8666   -22.2676 H          1           0.4055
     44 H11         4.2032   -18.4191   -24.9476 H          1           0.1327
     45 H12         5.8345   -17.5362   -26.5626 H          1           0.1385
     46 H13         8.2451   -17.7117   -26.1042 H          1           0.1401
     47 H14         9.0387   -18.7684   -24.0296 H          1           0.1473
     48 H15         8.5076   -19.3756   -21.7387 H          1           0.1360
     49 H16         6.8243   -19.6803   -21.2468 H          1           0.1527
     50 H17         9.1795   -21.4403   -20.7188 H          1           0.1671
     51 H18         7.4962   -21.7449   -20.2268 H          1           0.1194
     52 H19         6.4410   -23.8766   -20.6849 H          1           0.1411
     53 H20         6.7534   -26.2879   -21.0512 H          1           0.1384
     54 H21        11.1206   -28.0150   -22.4876 H          1           0.1343
     55 H22        10.1737   -27.2070   -23.7775 H          1           0.0847
     56 H23         0.9225   -18.3397   -19.4599 H          1           0.1323
     57 H24         1.1940   -17.1861   -17.3024 H          1           0.1351
@<TRIPOS>BOND
     1    1    2 1
     2    1   36 1
     3    1   37 1
     4    1   38 1
     5    2    3 1
     6    3   35 ar
     7    3    4 ar
     8    4    5 ar
     9    4   39 1
    10    5    6 ar
    11    5   40 1
    12    6    7 1
    13    6   34 ar
    14    7    8 1
    15    7   41 1
    16    7   42 1
    17    8    9 am
    18    8   43 1
    19    9   10 2
    20    9   11 1
    21   11   16 ar
    22   11   12 ar
    23   12   13 ar
    24   12   44 1
    25   13   14 ar
    26   13   45 1
    27   14   15 ar
    28   14   46 1
    29   15   16 ar
    30   15   47 1
    31   16   17 1
    32   17   18 1
    33   17   48 1
    34   17   49 1
    35   18   19 1
    36   18   20 1
    37   18   21 1
    38   21   22 1
    39   21   50 1
    40   21   51 1
    41   22   30 ar
    42   22   23 ar
    43   23   24 ar
    44   23   52 1
    45   24   25 ar
    46   24   53 1
    47   25   29 ar
    48   25   26 1
    49   26   27 1
    50   27   28 1
    51   27   54 1
    52   27   55 1
    53   28   29 1
    54   29   30 ar
    55   30   31 1
    56   31   32 1
    57   31   33 2
    58   34   35 ar
    59   34   56 1
    60   35   57 1
