AVX17542_0, 3
##########                 Name:           AVX17542_0
##########          Protonation:                  100
##########               SMILES:   CC(C)C[C@@H](Cc1ccc2c(c1C(=O)[O-])OCO2)CNC(=O)CCCC[NH3+]
##########            Long Name:   niumylpentanoylamino)methyl]-4-methyl-pentyl]-1,3-benzodioxole-4-carboxylate
##########          FlexRecCode: 1
##########               Number:                  529
##########   Ligand Source File: /raid1/people/rgc/Examples/sampl4/screening/ligands/build_1//sampl4-hivint-00000
##########           GlobalRank: 129
##########                 Rank:                    1
##########               Setnum:                    2
##########             Matchnum:                 5057
##########                Cloud:                    1
##########        Electrostatic:           -24.835831
##########        Van der Waals:           -15.670924
##########  Ligand Polar Desolv:            14.145580
########## Ligand Apolar Desolv:            -1.827168
##########      Internal Energy:             0.000000
##########      Receptor Energy: 0.0
########## Receptor Desolvation:             0.000000
########## Receptor Hydrophobic:             0.000000
##########         Total Energy: -28.19
##########        Ligand Charge:             0.000000
##########            Arbitrary:    +999.9990
##########     heavy atom count:   27
##########           pose count:    1
##########        Ligand Energy:             0.000000
# num electro vdwattr vdwrepu polsolv apolsol rdesolv rhydroe totalscore fullpol fullapo
#   1   -0.46   -0.76    0.28   -0.03   -0.05    0.00    0.00      -1.01   -0.12   -0.18
#   2   -0.50   -0.24    0.01    0.03   -0.02    0.00    0.00      -0.72    0.21   -0.15
#   3   -0.23   -0.14    0.00    0.06   -0.01    0.00    0.00      -0.32    0.77   -0.16
#   4   -0.92   -0.33    0.01    0.11   -0.03    0.00    0.00      -1.17    0.56   -0.17
#   5   -1.35   -0.64    0.11    0.18   -0.02    0.00    0.00      -1.72    0.72   -0.08
#   6    3.36   -1.27    0.45   -0.58   -0.14    0.00    0.00       1.82   -1.50   -0.37
#   7  -16.81   -1.14    0.21    1.33    0.50    0.00    0.00     -15.90    3.98    1.51
#   8    7.18   -1.06    0.23   -0.38   -0.18    0.00    0.00       5.79   -1.41   -0.66
#   9   -3.84   -1.12    0.22    1.31    0.11    0.00    0.00      -3.33    4.72    0.38
#  10   -1.17   -0.63    0.16   -0.20   -0.06    0.00    0.00      -1.90   -0.84   -0.24
#  11   -0.24   -0.27    0.04   -0.15   -0.03    0.00    0.00      -0.65   -1.12   -0.19
#  12   -0.29   -0.22    0.02   -0.36   -0.03    0.00    0.00      -0.87   -2.84   -0.24
#  13   -0.02   -0.07    0.00    0.03   -0.03    0.00    0.00      -0.08    0.61   -0.49
#  14   -1.33   -0.13    0.01   -1.49    0.07    0.00    0.00      -2.88  -19.64    0.86
#  15    0.99    0.00    0.00    0.95    0.04    0.00    0.00       1.97   15.67    0.58
#  16    1.20    0.00    0.00    0.65    0.02    0.00    0.00       1.87   15.30    0.58
#  17    0.68    0.00    0.00    0.29    0.01    0.00    0.00       0.98   16.03    0.60
#  18   -0.94   -0.31    0.01    0.16   -0.03    0.00    0.00      -1.12    0.89   -0.17
#  19   -0.76   -0.80    0.05    0.11   -0.09    0.00    0.00      -1.49    0.38   -0.31
#  20   -2.82   -1.56    0.32    0.28   -0.17    0.00    0.00      -3.95    0.67   -0.40
#  21   -2.25   -2.71    1.02    0.19   -0.24    0.00    0.00      -3.98    0.38   -0.47
#  22   -0.06   -2.77    1.25    0.09   -0.17    0.00    0.00      -1.65    0.17   -0.33
#  23   -8.21   -2.89    1.14    2.16    0.30    0.00    0.00      -7.50    3.76    0.52
#  24    4.90   -1.79    0.62   -1.37    0.01    0.00    0.00       2.36   -2.31    0.02
#  25   -9.36   -2.17    1.40    3.37    0.15    0.00    0.00      -6.61    7.61    0.34
#  26    2.45   -1.96    1.06   -0.12   -0.13    0.00    0.00       1.29   -0.30   -0.32
#  27   -3.47   -0.92    0.11    1.42   -0.12    0.00    0.00      -2.99    4.70   -0.41
#  28   13.94   -0.90    0.29   -3.36   -0.04    0.00    0.00       9.94  -14.68   -0.16
#  29  -10.00   -0.41    0.02    3.65   -0.05    0.00    0.00      -6.79   20.31   -0.29
#  30  -26.61   -3.40    7.72    7.63   -0.16    0.00    0.00     -14.81   27.23   -0.56
#  31    0.32   -0.23    0.04    0.05   -0.06    0.00    0.00       0.11    0.21   -0.28
#  32   -0.01   -0.69    1.60    0.03   -0.07    0.00    0.00       0.85    0.11   -0.28
#  33    0.11   -0.16    0.02    0.00   -0.04    0.00    0.00      -0.07   -0.01   -0.28
#  34    0.37   -0.06    0.00    0.00   -0.01    0.00    0.00       0.30   -0.07   -0.17
#  35    0.09   -0.02    0.00    0.00    0.00    0.00    0.00       0.06   -0.11   -0.19
#  36    0.04   -0.04    0.00    0.00   -0.01    0.00    0.00      -0.01   -0.08   -0.28
#  37    0.04   -0.05    0.00   -0.01   -0.01    0.00    0.00      -0.03   -0.16   -0.28
#  38    0.47   -0.05    0.00   -0.01   -0.01    0.00    0.00       0.40   -0.27   -0.21
#  39    0.32   -0.15    0.01   -0.05   -0.05    0.00    0.00       0.09   -0.28   -0.28
#  40    1.74   -0.39    0.24   -0.11   -0.04    0.00    0.00       1.43   -0.43   -0.16
#  41    1.78   -0.91    0.89    0.01   -0.10    0.00    0.00       1.66    0.02   -0.28
#  42    2.27   -0.49    0.25   -0.27   -0.11    0.00    0.00       1.65   -0.66   -0.28
#  43   11.05   -0.02    0.00   -0.40    0.08    0.00    0.00      10.72   -1.63    0.32
#  44    0.40   -0.11    0.01    0.22   -0.04    0.00    0.00       0.48    1.51   -0.28
#  45    1.23   -0.61    0.73    0.27   -0.09    0.00    0.00       1.53    0.85   -0.28
#  46    0.27   -0.11    0.03    0.01   -0.03    0.00    0.00       0.17    0.13   -0.28
#  47    0.14   -0.03    0.00    0.02   -0.01    0.00    0.00       0.12    0.45   -0.28
#  48    0.13   -0.04    0.00    0.10   -0.01    0.00    0.00       0.18    2.74   -0.28
#  49    0.20   -0.16    0.04    0.33   -0.04    0.00    0.00       0.37    2.19   -0.28
#  50    0.16   -0.01    0.00    0.04    0.00    0.00    0.00       0.19    2.87   -0.28
#  51    0.17   -0.01    0.00    0.05    0.00    0.00    0.00       0.20    3.32   -0.28
#  52    0.52   -0.08    0.00   -0.08   -0.02    0.00    0.00       0.34   -1.03   -0.28
#  53    1.60   -0.06    0.00   -0.03   -0.01    0.00    0.00       1.50   -0.54   -0.21
#  54    2.28   -0.34    0.09   -0.18   -0.09    0.00    0.00       1.77   -0.60   -0.28
#  55    2.18   -0.88    0.63   -0.44   -0.16    0.00    0.00       1.32   -0.76   -0.28
#  56    3.25   -0.63    0.29   -0.83   -0.16    0.00    0.00       1.92   -1.44   -0.28
#  57    0.98   -0.64    0.27   -0.50   -0.13    0.00    0.00      -0.02   -1.08   -0.28

@<TRIPOS>MOLECULE
       AVX17542_0       100
   57    58     0     0     0



@<TRIPOS>ATOM
      1 C1          5.7712   -24.8457   -21.7263 C.3        1          -0.1445
      2 C2          6.1875   -24.0058   -22.9356 C.3        1          -0.1125
      3 C3          4.9866   -23.1997   -23.4344 C.3        1          -0.1612
      4 C4          7.3107   -23.0495   -22.5299 C.3        1          -0.1182
      5 C5          8.5116   -23.8555   -22.0310 C.3        1          -0.0824
      6 C6          9.6349   -22.8992   -21.6254 C.3        1           0.1297
      7 N1         10.0336   -22.0950   -22.7833 N.am       1          -0.7159
      8 C7          9.4251   -20.9175   -23.0276 C.2        1           0.5020
      9 O1          8.5476   -20.5236   -22.2888 O.2        1          -0.5497
     10 C8          9.8352   -20.0903   -24.2187 C.3        1          -0.1453
     11 C9          9.6106   -20.8954   -25.5003 C.3        1          -0.1022
     12 C10        10.0270   -20.0557   -26.7096 C.3        1          -0.1530
     13 C11         9.8024   -20.8607   -27.9910 C.3        1          -0.0097
     14 N2         10.6087   -22.0879   -27.9460 N.4        1          -0.6381
     15 H1         11.5851   -21.8460   -27.8676 H          1           0.4343
     16 H2         10.3342   -22.6417   -27.1485 H          1           0.4350
     17 H3         10.4606   -22.6189   -28.7912 H          1           0.4369
     18 C12         9.0057   -24.7783   -23.1470 C.3        1          -0.0614
     19 C13        10.1886   -25.5721   -22.6556 C.ar       1          -0.0346
     20 C14        10.0530   -26.4115   -21.5723 C.ar       1          -0.1341
     21 C15        11.1353   -27.1452   -21.1144 C.ar       1          -0.1025
     22 C16        12.3662   -27.0435   -21.7402 C.ar       1          -0.0021
     23 O2         13.5634   -27.6489   -21.4859 O.3        1          -0.3185
     24 C17        14.3419   -27.4777   -22.6850 C.3        1           0.2048
     25 O3         13.8091   -26.2744   -23.2693 O.3        1          -0.2783
     26 C18        12.5202   -26.1991   -22.8370 C.ar       1           0.0763
     27 C19        11.4241   -25.4611   -23.3035 C.ar       1          -0.1243
     28 C20        11.5728   -24.5697   -24.4651 C.2        1           0.5224
     29 O4         11.3678   -24.9958   -25.5934 O.co2      1          -0.6755
     30 O5         11.9016   -23.4026   -24.3025 O.co2      1          -0.6717
     31 H4          6.6267   -25.4199   -21.3709 H          1           0.0473
     32 H5          5.4192   -24.1884   -20.9312 H          1           0.0507
     33 H6          4.9710   -25.5270   -22.0153 H          1           0.0547
     34 H7          6.5394   -24.6632   -23.7305 H          1           0.0777
     35 H8          5.2832   -22.6014   -24.2960 H          1           0.0647
     36 H9          4.1863   -23.8811   -23.7235 H          1           0.0482
     37 H10         4.6347   -22.5424   -22.6393 H          1           0.0603
     38 H11         7.6073   -22.4511   -23.3914 H          1           0.0695
     39 H12         6.9587   -22.3920   -21.7348 H          1           0.0575
     40 H13         8.2151   -24.4538   -21.1695 H          1           0.1018
     41 H14         9.2831   -22.2420   -20.8303 H          1           0.0758
     42 H15        10.4905   -23.4735   -21.2701 H          1           0.0637
     43 H16        10.7353   -22.4102   -23.3742 H          1           0.4045
     44 H17         9.2370   -19.1798   -24.2521 H          1           0.0937
     45 H18        10.8900   -19.8292   -24.1339 H          1           0.0961
     46 H19        10.2088   -21.8060   -25.4668 H          1           0.0832
     47 H20         8.5558   -21.1566   -25.5851 H          1           0.0818
     48 H21         9.4288   -19.1452   -26.7430 H          1           0.0878
     49 H22        11.0819   -19.7946   -26.6246 H          1           0.0890
     50 H23         8.7475   -21.1221   -28.0759 H          1           0.1354
     51 H24        10.0989   -20.2626   -28.8527 H          1           0.1346
     52 H25         8.2055   -25.4598   -23.4359 H          1           0.0504
     53 H26         9.3021   -24.1801   -24.0087 H          1           0.1124
     54 H27         9.0974   -26.4981   -21.0765 H          1           0.1280
     55 H28        11.0183   -27.8004   -20.2639 H          1           0.1248
     56 H29        15.3968   -27.3508   -22.4419 H          1           0.1244
     57 H30        14.2017   -28.3244   -23.3569 H          1           0.0764
@<TRIPOS>BOND
     1    1    2 1
     2    1   31 1
     3    1   32 1
     4    1   33 1
     5    2    3 1
     6    2    4 1
     7    2   34 1
     8    3   35 1
     9    3   36 1
    10    3   37 1
    11    4    5 1
    12    4   38 1
    13    4   39 1
    14    5    6 1
    15    5   18 1
    16    5   40 1
    17    6    7 1
    18    6   41 1
    19    6   42 1
    20    7    8 am
    21    7   43 1
    22    8    9 2
    23    8   10 1
    24   10   11 1
    25   10   44 1
    26   10   45 1
    27   11   12 1
    28   11   46 1
    29   11   47 1
    30   12   13 1
    31   12   48 1
    32   12   49 1
    33   13   14 1
    34   13   50 1
    35   13   51 1
    36   14   15 1
    37   14   16 1
    38   14   17 1
    39   18   19 1
    40   18   52 1
    41   18   53 1
    42   19   27 ar
    43   19   20 ar
    44   20   21 ar
    45   20   54 1
    46   21   22 ar
    47   21   55 1
    48   22   26 ar
    49   22   23 1
    50   23   24 1
    51   24   25 1
    52   24   56 1
    53   24   57 1
    54   25   26 1
    55   26   27 ar
    56   27   28 1
    57   28   29 1
    58   28   30 2
