AVX15988_0, 3
##########                 Name:           AVX15988_0
##########          Protonation:                   97
##########               SMILES:   [H]/N=c\1/[nH]c2c(c(ccc2s1)Cl)C
##########            Long Name:   5-chloro-4-methyl-3H-1,3-benzothiazol-2-imine
##########          FlexRecCode: 1
##########               Number:                  615
##########   Ligand Source File: /raid1/people/rgc/Examples/sampl4/screening/ligands/build_1//sampl4-hivint-00000
##########           GlobalRank: 132
##########                 Rank:                    1
##########               Setnum:                    1
##########             Matchnum:                19224
##########                Cloud:                    1
##########        Electrostatic:            -3.339149
##########        Van der Waals:           -24.234198
##########  Ligand Polar Desolv:             1.737665
########## Ligand Apolar Desolv:            -2.072384
##########      Internal Energy:             0.000000
##########      Receptor Energy: 0.0
########## Receptor Desolvation:             0.000000
########## Receptor Hydrophobic:             0.000000
##########         Total Energy: -27.91
##########        Ligand Charge:             0.000000
##########            Arbitrary:    +999.9990
##########     heavy atom count:   12
##########           pose count:    1
##########        Ligand Energy:             0.000000
# num electro vdwattr vdwrepu polsolv apolsol rdesolv rhydroe totalscore fullpol fullapo
#   1   -1.63   -1.07    0.18   -0.10   -0.08    0.00    0.00      -2.70   -0.23   -0.19
#   2   -0.70   -1.61    0.20   -0.01   -0.18    0.00    0.00      -2.30   -0.02   -0.41
#   3    0.00   -1.63    0.25    0.00   -0.12    0.00    0.00      -1.50   -0.01   -0.30
#   4    0.43   -2.33    0.40   -0.01   -0.32    0.00    0.00      -1.83   -0.04   -0.93
#   5    0.72   -2.29    0.56   -0.11   -0.23    0.00    0.00      -1.35   -0.23   -0.46
#   6    0.04   -3.06    1.15   -0.03   -0.26    0.00    0.00      -2.17   -0.06   -0.47
#   7   -0.83   -2.73    0.82    0.07   -0.18    0.00    0.00      -2.85    0.12   -0.31
#   8    1.81   -2.03    0.30   -0.07   -0.38    0.00    0.00      -0.37   -0.13   -0.72
#   9  -10.57   -2.81    0.64    0.41    0.65    0.00    0.00     -11.68    0.66    1.03
#  10    6.13   -3.18    0.58   -0.69   -1.62    0.00    0.00       1.22   -1.00   -2.36
#  11   -9.98   -6.22    4.77    1.53    1.04    0.00    0.00      -8.87    2.11    1.43
#  12   -0.41   -5.85    2.35    0.08   -0.59    0.00    0.00      -4.42    0.11   -0.83
#  13    0.74   -0.25    0.04    0.05   -0.07    0.00    0.00       0.51    0.22   -0.28
#  14    1.37   -0.35    0.15    0.04   -0.06    0.00    0.00       1.15    0.16   -0.23
#  15    1.28   -0.64    0.38    0.09   -0.10    0.00    0.00       1.01    0.22   -0.24
#  16   -2.08   -0.41    0.09    0.35   -0.11    0.00    0.00      -2.16    0.89   -0.28
#  17   -0.60   -0.66    0.24    0.44   -0.15    0.00    0.00      -0.73    0.80   -0.28
#  18    8.91   -0.08    0.00    0.10    0.26    0.00    0.00       9.20    0.21    0.52
#  19    2.04   -0.24    0.10   -0.41    0.43    0.00    0.00       1.92   -0.57    0.60

@<TRIPOS>MOLECULE
       AVX15988_0        97
   19    20     0     0     0



@<TRIPOS>ATOM
      1 C1          4.9353   -24.1261     0.8840 C.3        1          -0.1232
      2 C2          5.7949   -23.5467    -0.2099 C.ar       1          -0.0886
      3 C3          5.4126   -22.3768    -0.8255 C.ar       1          -0.0001
      4 Cl1         3.9465   -21.5914    -0.3278 Cl         1          -0.0495
      5 C4          6.1764   -21.8143    -1.8343 C.ar       1          -0.1139
      6 C5          7.3449   -22.4458    -2.2259 C.ar       1          -0.0342
      7 C6          7.7258   -23.6138    -1.6108 C.ar       1          -0.1286
      8 C7          6.9779   -24.2052    -0.5832 C.ar       1           0.1622
      9 N1          7.4910   -25.3794    -0.0545 N.pl3      1          -0.6399
     10 C8          8.6696   -25.8918    -0.5386 C.2        1           0.4393
     11 N2          9.3037   -26.9746    -0.1726 N.2        1          -0.6873
     12 S1          9.1091   -24.7117    -1.8040 S.3        1          -0.0576
     13 H1          4.0653   -23.4880     1.0389 H          1           0.0814
     14 H2          4.6067   -25.1251     0.5972 H          1           0.0844
     15 H3          5.5121   -24.1843     1.8070 H          1           0.0669
     16 H4          5.8649   -20.8959    -2.3094 H          1           0.1508
     17 H5          7.9536   -22.0225    -3.0112 H          1           0.1482
     18 H6          7.0181   -25.8386     0.6571 H          1           0.4170
     19 H7         10.1364   -27.2189    -0.6059 H          1           0.3727
@<TRIPOS>BOND
     1    1    2 1
     2    1   13 1
     3    1   14 1
     4    1   15 1
     5    2    8 ar
     6    2    3 ar
     7    3    4 1
     8    3    5 ar
     9    5    6 ar
    10    5   16 1
    11    6    7 ar
    12    6   17 1
    13    7   12 1
    14    7    8 ar
    15    8    9 1
    16    9   10 1
    17    9   18 1
    18   10   11 2
    19   10   12 1
    20   11   19 1
