AVX101124_1, 3
##########                 Name:          AVX101124_0
##########          Protonation:                  100
##########               SMILES:   c1ccc\2c(c1)C[C@@H](/C2=C/c3ccc4c(c3C(=O)[O-])OCO4)NC(=O)CCCCC[NH3+]
##########            Long Name:   zaniumylhexanoylamino)indan-1-ylidene]methyl]-1,3-benzodioxole-4-carboxylate
##########          FlexRecCode: 1
##########               Number:                  151
##########   Ligand Source File: /raid1/people/rgc/Examples/sampl4/screening/ligands/build_1//sampl4-hivint-00000
##########           GlobalRank: 92
##########                 Rank:                    1
##########               Setnum:                    2
##########             Matchnum:                21092
##########                Cloud:                    1
##########        Electrostatic:           -30.310553
##########        Van der Waals:           -20.898403
##########  Ligand Polar Desolv:            17.425407
########## Ligand Apolar Desolv:            -2.395481
##########      Internal Energy:             0.000000
##########      Receptor Energy: 0.0
########## Receptor Desolvation:             0.000000
########## Receptor Hydrophobic:             0.000000
##########         Total Energy: -36.18
##########        Ligand Charge:             0.000000
##########            Arbitrary:    +999.9990
##########     heavy atom count:   31
##########           pose count:    1
##########        Ligand Energy:             0.000000
# num electro vdwattr vdwrepu polsolv apolsol rdesolv rhydroe totalscore fullpol fullapo
#   1   -1.23   -0.36    0.06   -2.73    0.12    0.00    0.00      -4.14  -19.28    0.86
#   2    0.74    0.00    0.00    1.02    0.04    0.00    0.00       1.79   15.87    0.60
#   3    0.77   -0.01    0.00    1.56    0.06    0.00    0.00       2.39   14.72    0.58
#   4    1.13   -0.02    0.00    2.40    0.09    0.00    0.00       3.60   15.04    0.58
#   5   -0.02   -0.08    0.00    0.04   -0.03    0.00    0.00      -0.08    0.74   -0.48
#   6   -0.25   -0.08    0.00   -0.17   -0.01    0.00    0.00      -0.51   -2.83   -0.24
#   7   -0.29   -0.25    0.05   -0.17   -0.03    0.00    0.00      -0.69   -1.38   -0.22
#   8   -0.21   -0.16    0.01   -0.04   -0.02    0.00    0.00      -0.42   -0.42   -0.19
#   9   -0.37   -0.41    0.08   -0.01   -0.05    0.00    0.00      -0.76   -0.03   -0.24
#  10    3.07   -0.66    0.10   -0.53   -0.13    0.00    0.00       1.85   -2.66   -0.66
#  11   -2.06   -0.32    0.01    0.72    0.06    0.00    0.00      -1.59    4.65    0.37
#  12  -10.76   -1.22    0.37    1.48    0.57    0.00    0.00      -9.56    5.28    2.02
#  13    2.60   -0.69    0.08   -0.49   -0.10    0.00    0.00       1.40   -1.50   -0.31
#  14   -1.19   -1.41    0.48    0.12   -0.12    0.00    0.00      -2.13    0.27   -0.28
#  15   -2.32   -1.89    0.51    0.20   -0.19    0.00    0.00      -3.69    0.45   -0.44
#  16   -2.60   -3.20    2.36    0.15   -0.25    0.00    0.00      -3.55    0.28   -0.47
#  17   -3.00   -3.80    2.29    0.12   -0.26    0.00    0.00      -4.65    0.22   -0.47
#  18   -3.07   -2.70    0.90    0.39   -0.24    0.00    0.00      -4.72    0.78   -0.47
#  19   -2.80   -1.24    0.15    0.52   -0.15    0.00    0.00      -3.52    1.33   -0.38
#  20   -0.93   -1.08    0.12    0.35   -0.14    0.00    0.00      -1.67    1.04   -0.40
#  21   -3.03   -0.67    0.04    0.25   -0.10    0.00    0.00      -3.50    0.99   -0.38
#  22    0.35   -0.40    0.02    0.17   -0.05    0.00    0.00       0.08    1.14   -0.36
#  23   -0.53   -0.34    0.01    0.03   -0.04    0.00    0.00      -0.88    0.22   -0.30
#  24   -0.85   -0.49    0.04    0.12   -0.04    0.00    0.00      -1.22    0.77   -0.27
#  25   -0.74   -0.52    0.06    0.08   -0.08    0.00    0.00      -1.18    0.50   -0.45
#  26    0.12   -0.46    0.02   -0.03   -0.06    0.00    0.00      -0.41   -0.15   -0.33
#  27   -1.48   -0.67    0.08    0.83    0.12    0.00    0.00      -1.11    3.61    0.53
#  28    0.94   -0.65    0.07   -0.58    0.01    0.00    0.00      -0.21   -2.17    0.02
#  29   -3.11   -0.98    0.12    2.14    0.10    0.00    0.00      -1.73    7.33    0.34
#  30    0.92   -0.57    0.03   -0.10   -0.06    0.00    0.00       0.23   -0.48   -0.32
#  31   -1.80   -0.46    0.02    0.90   -0.08    0.00    0.00      -1.43    4.68   -0.41
#  32   13.91   -1.13    0.39   -4.68   -0.05    0.00    0.00       8.44  -14.81   -0.17
#  33  -28.20   -1.78    0.65    8.59   -0.14    0.00    0.00     -20.89   20.80   -0.34
#  34  -12.33   -1.57    1.39    7.05   -0.15    0.00    0.00      -5.59   26.20   -0.55
#  35    0.21   -0.02    0.00    0.07   -0.01    0.00    0.00       0.26    3.65   -0.28
#  36    0.16   -0.01    0.00    0.04    0.00    0.00    0.00       0.18    3.19   -0.28
#  37    0.11   -0.01    0.00    0.02    0.00    0.00    0.00       0.12    1.50   -0.28
#  38    0.13   -0.02    0.00    0.04   -0.01    0.00    0.00       0.14    1.91   -0.28
#  39    0.22   -0.27    0.19    0.18   -0.05    0.00    0.00       0.27    1.08   -0.28
#  40    0.21   -0.05    0.00    0.04   -0.02    0.00    0.00       0.18    0.63   -0.28
#  41    0.11   -0.02    0.00    0.00   -0.01    0.00    0.00       0.08   -0.01   -0.28
#  42    0.13   -0.04    0.00    0.01   -0.01    0.00    0.00       0.10    0.23   -0.28
#  43    0.16   -0.12    0.01    0.05   -0.03    0.00    0.00       0.06    0.40   -0.28
#  44    0.38   -0.34    0.33   -0.02   -0.05    0.00    0.00       0.29   -0.10   -0.28
#  45   10.05   -0.03    0.00   -0.95    0.16    0.00    0.00       9.23   -3.42    0.58
#  46    0.62   -0.23    0.02   -0.19   -0.06    0.00    0.00       0.17   -0.81   -0.26
#  47    0.50   -0.86    0.60   -0.13   -0.12    0.00    0.00      -0.01   -0.31   -0.28
#  48    1.27   -0.61    0.66   -0.13   -0.10    0.00    0.00       1.09   -0.33   -0.27
#  49    2.22   -0.57    0.28    0.02   -0.14    0.00    0.00       1.82    0.05   -0.28
#  50    2.42   -1.21    2.23    0.04   -0.17    0.00    0.00       3.30    0.06   -0.28
#  51    2.97   -0.88    0.66   -0.30   -0.15    0.00    0.00       2.31   -0.58   -0.28
#  52    3.08   -0.16    0.01   -0.19   -0.03    0.00    0.00       2.72   -1.11   -0.15
#  53    1.43   -0.05    0.00   -0.11   -0.01    0.00    0.00       1.26   -1.99   -0.24
#  54    0.81   -0.16    0.03   -0.21   -0.04    0.00    0.00       0.42   -1.41   -0.26
#  55    0.59   -0.19    0.08   -0.15   -0.04    0.00    0.00       0.28   -0.99   -0.28
#  56    0.21   -0.08    0.00   -0.10   -0.02    0.00    0.00       0.02   -1.34   -0.28
#  57    0.32   -0.47    0.14   -0.33   -0.09    0.00    0.00      -0.43   -1.05   -0.28

@<TRIPOS>MOLECULE
      AVX101124_0       100
   57    60     0     0     0



@<TRIPOS>ATOM
      1 N1         10.4429   -19.7819   -26.8428 N.4        1          -0.6384
      2 H1          9.6496   -19.4420   -26.3201 H          1           0.4365
      3 H2         10.9864   -18.9999   -27.1761 H          1           0.4352
      4 H3         11.0159   -20.3600   -26.2464 H          1           0.4344
      5 C1          9.9723   -20.5742   -27.9868 C.3        1          -0.0105
      6 C2         11.1752   -21.0899   -28.7794 C.3        1          -0.1516
      7 C3         12.0441   -21.9663   -27.8751 C.3        1          -0.1208
      8 C4         13.2469   -22.4819   -28.6678 C.3        1          -0.1023
      9 C5         14.1159   -23.3583   -27.7635 C.3        1          -0.1459
     10 C6         13.3041   -24.5264   -27.2657 C.2        1           0.5135
     11 O1         12.4064   -24.9750   -27.9465 O.2        1          -0.5539
     12 N2         13.5761   -25.0726   -26.0640 N.am       1          -0.7112
     13 C7         12.7873   -26.2084   -25.5802 C.3        1           0.1958
     14 C8         13.6266   -27.0720   -24.6287 C.3        1          -0.0830
     15 C9         12.9159   -27.0498   -23.2967 C.ar       1          -0.1002
     16 C10        13.2379   -27.6578   -22.0977 C.ar       1          -0.1100
     17 C11        12.4250   -27.4939   -20.9914 C.ar       1          -0.1244
     18 C12        11.2813   -26.7193   -21.0770 C.ar       1          -0.1199
     19 C13        10.9471   -26.1076   -22.2647 C.ar       1          -0.1103
     20 C14        11.7664   -26.2674   -23.3925 C.ar       1          -0.0384
     21 C15        11.6216   -25.7214   -24.7538 C.2        1          -0.1601
     22 C16        10.6248   -24.9276   -25.1845 C.2        1           0.0244
     23 C17         9.4324   -24.7262   -24.3490 C.ar       1          -0.0403
     24 C18         8.3377   -25.5816   -24.4715 C.ar       1          -0.1041
     25 C19         7.2175   -25.3938   -23.6870 C.ar       1          -0.1099
     26 C20         7.1645   -24.3556   -22.7698 C.ar       1           0.0145
     27 O2          6.1982   -23.9594   -21.8933 O.3        1          -0.3149
     28 C21         6.4976   -22.5996   -21.5446 C.3        1           0.2043
     29 O3          7.9271   -22.5756   -21.6720 O.3        1          -0.2759
     30 C22         8.2456   -23.4873   -22.6288 C.ar       1           0.0715
     31 C23         9.3910   -23.6673   -23.4123 C.ar       1          -0.1051
     32 C24        10.5370   -22.7617   -23.2675 C.2        1           0.5234
     33 O4         11.4258   -23.0224   -22.4674 O.co2      1          -0.6806
     34 O5         10.6038   -21.7458   -23.9468 O.co2      1          -0.6650
     35 H4          9.3853   -21.4192   -27.6268 H          1           0.1333
     36 H5          9.3533   -19.9499   -28.6311 H          1           0.1344
     37 H6         10.8260   -21.6778   -29.6282 H          1           0.0887
     38 H7         11.7623   -20.2451   -29.1395 H          1           0.0875
     39 H8         12.3933   -21.3785   -27.0263 H          1           0.0747
     40 H9         11.4571   -22.8112   -27.5150 H          1           0.0773
     41 H10        12.8978   -23.0696   -29.5167 H          1           0.0741
     42 H11        13.8341   -21.6370   -29.0277 H          1           0.0719
     43 H12        14.9728   -23.7255   -28.3281 H          1           0.0933
     44 H13        14.4649   -22.7704   -26.9144 H          1           0.1001
     45 H14        14.2941   -24.7138   -25.5193 H          1           0.4103
     46 H15        12.4316   -26.8055   -26.4199 H          1           0.1029
     47 H16        13.6857   -28.0935   -25.0044 H          1           0.0834
     48 H17        14.6272   -26.6519   -24.5262 H          1           0.0789
     49 H18        14.1287   -28.2641   -22.0249 H          1           0.1154
     50 H19        12.6830   -27.9720   -20.0580 H          1           0.1194
     51 H20        10.6491   -26.5944   -20.2103 H          1           0.1202
     52 H21        10.0535   -25.5045   -22.3282 H          1           0.1360
     53 H22        10.7007   -24.4382   -26.1443 H          1           0.1501
     54 H23         8.3665   -26.3937   -25.1828 H          1           0.1352
     55 H24         6.3745   -26.0614   -23.7889 H          1           0.1316
     56 H25         6.0317   -21.9056   -22.2443 H          1           0.1269
     57 H26         6.1933   -22.3832   -20.5207 H          1           0.0780
@<TRIPOS>BOND
     1    1    2 1
     2    1    3 1
     3    1    4 1
     4    1    5 1
     5    5    6 1
     6    5   35 1
     7    5   36 1
     8    6    7 1
     9    6   37 1
    10    6   38 1
    11    7    8 1
    12    7   39 1
    13    7   40 1
    14    8    9 1
    15    8   41 1
    16    8   42 1
    17    9   10 1
    18    9   43 1
    19    9   44 1
    20   10   11 2
    21   10   12 am
    22   12   13 1
    23   12   45 1
    24   13   21 1
    25   13   14 1
    26   13   46 1
    27   14   15 1
    28   14   47 1
    29   14   48 1
    30   15   20 ar
    31   15   16 ar
    32   16   17 ar
    33   16   49 1
    34   17   18 ar
    35   17   50 1
    36   18   19 ar
    37   18   51 1
    38   19   20 ar
    39   19   52 1
    40   20   21 1
    41   21   22 2
    42   22   23 1
    43   22   53 1
    44   23   31 ar
    45   23   24 ar
    46   24   25 ar
    47   24   54 1
    48   25   26 ar
    49   25   55 1
    50   26   30 ar
    51   26   27 1
    52   27   28 1
    53   28   29 1
    54   28   56 1
    55   28   57 1
    56   29   30 1
    57   30   31 ar
    58   31   32 1
    59   32   33 1
    60   32   34 2
