AVX17375_2, 3
##########                 Name:           AVX17375_0
##########          Protonation:                  100
##########               SMILES:   c1ccc2c(c1)C[C@@H]([C@@H]2Cc3ccc4c(c3C(=O)[O-])OCO4)O
##########            Long Name:   5-[[(1R,2S)-2-hydroxyindan-1-yl]methyl]-1,3-benzodioxole-4-carboxylate
##########          FlexRecCode: 1
##########               Number:                   28
##########   Ligand Source File: /raid1/people/rgc/Examples/sampl4/screening/ligands/build_1//sampl4-hivint-00000
##########           GlobalRank: 29
##########                 Rank:                    1
##########               Setnum:                    5
##########             Matchnum:                 7343
##########                Cloud:                    1
##########        Electrostatic:           -48.961151
##########        Van der Waals:           -16.036198
##########  Ligand Polar Desolv:            24.734407
########## Ligand Apolar Desolv:            -1.248707
##########      Internal Energy:             0.000000
##########      Receptor Energy: 0.0
########## Receptor Desolvation:             0.000000
########## Receptor Hydrophobic:             0.000000
##########         Total Energy: -41.51
##########        Ligand Charge:            -1.000000
##########            Arbitrary:    +999.9990
##########     heavy atom count:   23
##########           pose count:    1
##########        Ligand Energy:             0.000000
# num electro vdwattr vdwrepu polsolv apolsol rdesolv rhydroe totalscore fullpol fullapo
#   1   -4.18   -1.35    0.41    1.63    0.36    0.00    0.00      -3.12    5.55    1.22
#   2    0.45   -0.32    0.02   -0.36   -0.03    0.00    0.00      -0.25   -1.89   -0.16
#   3   -0.50   -0.53    0.13    0.21   -0.06    0.00    0.00      -0.75    0.95   -0.27
#   4   -0.32   -0.39    0.06    0.21   -0.06    0.00    0.00      -0.50    1.57   -0.43
#   5   -0.30   -0.30    0.04    0.13   -0.05    0.00    0.00      -0.49    1.12   -0.47
#   6   -0.50   -0.16    0.00    0.09   -0.03    0.00    0.00      -0.60    1.20   -0.47
#   7   -0.63   -0.17    0.00    0.14   -0.03    0.00    0.00      -0.69    2.05   -0.47
#   8   -0.59   -0.18    0.00    0.23   -0.03    0.00    0.00      -0.57    3.30   -0.45
#   9   -0.38   -0.24    0.01    0.27   -0.04    0.00    0.00      -0.38    2.72   -0.39
#  10   -0.15   -0.27    0.01    0.11   -0.03    0.00    0.00      -0.32    0.68   -0.16
#  11   -0.86   -0.87    0.21    0.25   -0.05    0.00    0.00      -1.32    0.80   -0.16
#  12   -0.56   -1.29    0.31    0.25   -0.10    0.00    0.00      -1.40    0.80   -0.33
#  13   -1.26   -1.26    0.26    0.31   -0.12    0.00    0.00      -2.05    1.08   -0.40
#  14   -1.04   -1.60    0.50    0.17   -0.15    0.00    0.00      -2.13    0.52   -0.47
#  15   -0.10   -1.65    0.66    0.00   -0.11    0.00    0.00      -1.20    0.00   -0.33
#  16   -3.91   -1.66    0.81    2.11    0.22    0.00    0.00      -2.42    5.04    0.52
#  17    2.68   -1.34    0.49   -1.39    0.01    0.00    0.00       0.44   -3.14    0.02
#  18   -6.09   -1.40    0.23    4.25    0.15    0.00    0.00      -2.86    9.76    0.34
#  19    1.59   -1.79    1.28   -0.13   -0.11    0.00    0.00       0.84   -0.38   -0.32
#  20   -3.33   -1.52    0.69    2.32   -0.14    0.00    0.00      -1.98    6.61   -0.41
#  21   19.98   -1.68    0.42   -7.54   -0.07    0.00    0.00      11.11  -18.52   -0.16
#  22  -25.70   -1.47    0.70    9.32   -0.10    0.00    0.00     -17.25   27.34   -0.30
#  23  -34.00   -3.40    2.18   16.58   -0.28    0.00    0.00     -18.92   32.84   -0.56
#  24    0.83   -0.03    0.00   -0.31    0.25    0.00    0.00       0.75   -1.53    1.24
#  25    0.08   -0.04    0.00   -0.03   -0.01    0.00    0.00       0.01   -0.91   -0.28
#  26    0.16   -0.11    0.01   -0.12   -0.03    0.00    0.00      -0.10   -1.02   -0.28
#  27    0.93   -0.52    0.64   -0.31   -0.08    0.00    0.00       0.66   -1.07   -0.28
#  28    0.27   -0.07    0.01   -0.10   -0.02    0.00    0.00       0.09   -1.32   -0.28
#  29    0.35   -0.02    0.00   -0.03   -0.01    0.00    0.00       0.28   -1.37   -0.28
#  30    0.49   -0.05    0.00   -0.08   -0.01    0.00    0.00       0.35   -2.00   -0.28
#  31    0.79   -0.04    0.00   -0.06   -0.01    0.00    0.00       0.68   -1.64   -0.27
#  32    0.25   -0.05    0.00    0.00   -0.01    0.00    0.00       0.19    0.03   -0.22
#  33    2.83   -0.33    0.11   -0.17   -0.06    0.00    0.00       2.39   -0.59   -0.20
#  34    0.61   -0.57    0.31   -0.62   -0.07    0.00    0.00      -0.35   -2.04   -0.24
#  35    0.74   -0.17    0.01   -0.44   -0.04    0.00    0.00       0.09   -2.44   -0.24
#  36    0.38   -0.48    0.50   -0.50   -0.07    0.00    0.00      -0.17   -2.05   -0.28
#  37    1.34   -1.00    1.47   -1.10   -0.13    0.00    0.00       0.57   -2.42   -0.28
#  38    0.69   -0.30    0.05   -0.52   -0.09    0.00    0.00      -0.16   -1.69   -0.28

@<TRIPOS>MOLECULE
       AVX17375_0       100
   38    41     0     0     0



@<TRIPOS>ATOM
      1 O1          8.9831   -18.9901   -22.6994 O.3        1          -0.5462
      2 C1          8.6274   -19.7767   -23.8381 C.3        1           0.1031
      3 C2          9.8434   -20.0323   -24.7349 C.3        1          -0.1098
      4 C3          9.5659   -21.3652   -25.3840 C.ar       1          -0.1039
      5 C4         10.0695   -21.9375   -26.5397 C.ar       1          -0.1150
      6 C5          9.6510   -23.1948   -26.9301 C.ar       1          -0.1322
      7 C6          8.7271   -23.8831   -26.1659 C.ar       1          -0.1250
      8 C7          8.2237   -23.3128   -25.0130 C.ar       1          -0.0920
      9 C8          8.6427   -22.0530   -24.6203 C.ar       1          -0.0583
     10 C9          8.2648   -21.2085   -23.4292 C.3        1          -0.0236
     11 C10         9.0694   -21.6316   -22.1986 C.3        1          -0.0538
     12 C11         8.7401   -23.0603   -21.8501 C.ar       1          -0.0316
     13 C12         7.4448   -23.4138   -21.5439 C.ar       1          -0.1195
     14 C13         7.1334   -24.7250   -21.2229 C.ar       1          -0.1085
     15 C14         8.1206   -25.6958   -21.2059 C.ar       1          -0.0068
     16 O2          8.0712   -27.0316   -20.9274 O.3        1          -0.3207
     17 C15         9.2894   -27.5803   -21.4641 C.3        1           0.2053
     18 O3         10.2084   -26.4724   -21.4275 O.3        1          -0.2792
     19 C16         9.4354   -25.3549   -21.5130 C.ar       1           0.0707
     20 C17         9.7494   -24.0297   -21.8430 C.ar       1          -0.1271
     21 C18        11.1342   -23.6581   -22.1751 C.2        1           0.5214
     22 O4         11.5199   -23.7088   -23.3349 O.co2      1          -0.6720
     23 O5         11.8998   -23.2983   -21.2911 O.co2      1          -0.6751
     24 H1          8.2804   -18.9128   -22.0397 H          1           0.3668
     25 H2          7.8165   -19.3104   -24.3975 H          1           0.0665
     26 H3          9.9285   -19.2519   -25.4912 H          1           0.0820
     27 H4         10.7529   -20.0831   -24.1364 H          1           0.0742
     28 H5         10.7911   -21.4002   -27.1369 H          1           0.1112
     29 H6         10.0457   -23.6398   -27.8317 H          1           0.1159
     30 H7          8.3996   -24.8663   -26.4700 H          1           0.1186
     31 H8          7.5017   -23.8508   -24.4165 H          1           0.1297
     32 H9          7.1959   -21.2878   -23.2311 H          1           0.1091
     33 H10        10.1346   -21.5464   -22.4139 H          1           0.1113
     34 H11         8.8155   -20.9850   -21.3587 H          1           0.0607
     35 H12         6.6672   -22.6644   -21.5538 H          1           0.1373
     36 H13         6.1145   -24.9916   -20.9840 H          1           0.1218
     37 H14         9.6495   -28.3975   -20.8390 H          1           0.1217
     38 H15         9.1382   -27.9188   -22.4891 H          1           0.0731
@<TRIPOS>BOND
     1    1    2 1
     2    1   24 1
     3    2   10 1
     4    2    3 1
     5    2   25 1
     6    3    4 1
     7    3   26 1
     8    3   27 1
     9    4    9 ar
    10    4    5 ar
    11    5    6 ar
    12    5   28 1
    13    6    7 ar
    14    6   29 1
    15    7    8 ar
    16    7   30 1
    17    8    9 ar
    18    8   31 1
    19    9   10 1
    20   10   11 1
    21   10   32 1
    22   11   12 1
    23   11   33 1
    24   11   34 1
    25   12   20 ar
    26   12   13 ar
    27   13   14 ar
    28   13   35 1
    29   14   15 ar
    30   14   36 1
    31   15   19 ar
    32   15   16 1
    33   16   17 1
    34   17   18 1
    35   17   37 1
    36   17   38 1
    37   18   19 1
    38   19   20 ar
    39   20   21 1
    40   21   22 1
    41   21   23 2
