AVX17286_0, 3
##########                 Name:           AVX17286_0
##########          Protonation:                  100
##########               SMILES:   c1ccc2c(c1)/C(=C/c3ccc4c(c3C(=O)[O-])OCO4)/C(=[NH+]2)[O-]
##########            Long Name:   5-[(Z)-(2-oxidoindol-1-ium-3-ylidene)methyl]-1,3-benzodioxole-4-carboxylate
##########          FlexRecCode: 1
##########               Number:                  675
##########   Ligand Source File: /raid1/people/rgc/Examples/sampl4/screening/ligands/build_1//sampl4-hivint-00000
##########           GlobalRank: 12
##########                 Rank:                    1
##########               Setnum:                    3
##########             Matchnum:                16152
##########                Cloud:                    1
##########        Electrostatic:           -51.772232
##########        Van der Waals:           -15.809819
##########  Ligand Polar Desolv:            24.848049
########## Ligand Apolar Desolv:            -2.298502
##########      Internal Energy:             0.000000
##########      Receptor Energy: 0.0
########## Receptor Desolvation:             0.000000
########## Receptor Hydrophobic:             0.000000
##########         Total Energy: -45.03
##########        Ligand Charge:            -1.000000
##########            Arbitrary:    +999.9990
##########     heavy atom count:   23
##########           pose count:    1
##########        Ligand Energy:             0.000000
# num electro vdwattr vdwrepu polsolv apolsol rdesolv rhydroe totalscore fullpol fullapo
#   1  -27.09   -2.16    1.22   11.34   -0.14    0.00    0.00     -16.83   27.08   -0.33
#   2   20.72   -1.74    0.80   -7.11   -0.07    0.00    0.00      12.60  -18.57   -0.17
#   3  -35.22   -3.28    4.21   12.15   -0.22    0.00    0.00     -22.35   30.91   -0.55
#   4   -2.20   -0.77    0.06    1.75   -0.12    0.00    0.00      -1.28    5.99   -0.41
#   5    1.00   -0.73    0.08   -0.12   -0.08    0.00    0.00       0.15   -0.51   -0.32
#   6   -4.07   -0.77    0.07    2.55    0.09    0.00    0.00      -2.13    9.32    0.33
#   7    1.68   -0.79    0.12   -0.92    0.01    0.00    0.00       0.10   -3.18    0.02
#   8   -2.11   -0.51    0.03    1.12    0.11    0.00    0.00      -1.37    5.26    0.50
#   9    0.35   -0.58    0.04   -0.16   -0.07    0.00    0.00      -0.42   -0.73   -0.33
#  10   -1.13   -0.66    0.06    0.31   -0.12    0.00    0.00      -1.55    1.24   -0.47
#  11   -0.45   -0.78    0.06    0.15   -0.09    0.00    0.00      -1.11    0.52   -0.32
#  12   -1.58   -0.69    0.03    0.45   -0.10    0.00    0.00      -1.89    1.65   -0.37
#  13    3.26   -1.04    0.11   -0.41   -0.12    0.00    0.00       1.79   -1.27   -0.37
#  14   -5.70   -2.08    0.68    1.59   -0.19    0.00    0.00      -5.70    3.51   -0.42
#  15   12.75   -3.28    1.45   -4.86   -0.37    0.00    0.00       5.69   -9.09   -0.69
#  16  -13.25   -3.06    1.44    7.59    0.69    0.00    0.00      -6.58   14.25    1.29
#  17  -14.06   -5.26    5.15    4.00    1.01    0.00    0.00      -9.15    6.59    1.67
#  18    8.48   -0.27    0.26   -2.45    0.40    0.00    0.00       6.42   -3.68    0.60
#  19    2.70   -3.85    2.01   -0.57   -0.47    0.00    0.00      -0.18   -0.92   -0.77
#  20   -2.77   -3.77    1.85    0.32   -0.35    0.00    0.00      -4.73    0.43   -0.48
#  21   -1.64   -3.40    0.98    0.10   -0.34    0.00    0.00      -4.31    0.14   -0.47
#  22   -1.67   -3.90    1.83    0.51   -0.31    0.00    0.00      -3.53    0.78   -0.47
#  23   -1.19   -2.74    0.94    0.69   -0.27    0.00    0.00      -2.56    1.25   -0.48
#  24   -1.77   -2.77    1.26    1.34   -0.24    0.00    0.00      -2.17    2.49   -0.44
#  25    1.43   -0.72    0.47   -0.94   -0.10    0.00    0.00       0.12   -2.53   -0.28
#  26    0.18   -0.14    0.01   -0.26   -0.04    0.00    0.00      -0.26   -1.72   -0.28
#  27    0.86   -0.19    0.06   -0.41   -0.04    0.00    0.00       0.29   -2.87   -0.28
#  28    1.16   -0.25    0.04   -0.80   -0.06    0.00    0.00       0.10   -3.11   -0.23
#  29    3.17   -0.16    0.01   -0.61   -0.04    0.00    0.00       2.38   -3.66   -0.22
#  30    2.42   -1.75    8.97   -0.27   -0.18    0.00    0.00       9.19   -0.42   -0.28
#  31    1.81   -0.98    0.69   -0.06   -0.20    0.00    0.00       1.25   -0.09   -0.28
#  32    0.47   -1.89    4.29   -0.50   -0.18    0.00    0.00       2.19   -0.80   -0.28
#  33    1.69   -0.61    0.49   -0.67   -0.11    0.00    0.00       0.79   -1.67   -0.28

@<TRIPOS>MOLECULE
       AVX17286_0       100
   33    36     0     0     0



@<TRIPOS>ATOM
      1 O1         11.3322   -22.3802   -22.4446 O.co2      1          -0.6792
      2 C1         11.4068   -23.5646   -22.7420 C.2        1           0.5223
      3 O2         12.4928   -24.0614   -23.0078 O.co2      1          -0.6603
      4 C2         10.1915   -24.3928   -22.7742 C.ar       1          -0.0877
      5 C3          8.9499   -23.8315   -22.4779 C.ar       1           0.0561
      6 O3          8.5744   -22.5718   -22.1334 O.3        1          -0.2761
      7 C4          7.2820   -22.6849   -21.5190 C.3        1           0.2048
      8 O4          6.7405   -23.8353   -22.1852 O.3        1          -0.3156
      9 C5          7.7989   -24.6272   -22.5109 C.ar       1           0.0316
     10 C6          7.8883   -25.9713   -22.8373 C.ar       1          -0.1143
     11 C7          9.1102   -26.5418   -23.1336 C.ar       1          -0.0366
     12 C8         10.2720   -25.7665   -23.1122 C.ar       1          -0.0790
     13 C9         11.5665   -26.3711   -23.4321 C.2        1           0.1453
     14 C10        12.3314   -26.9292   -22.4325 C.2        1          -0.2175
     15 C11        11.9569   -27.1549   -21.0252 C.2        1           0.5071
     16 O5         10.7650   -26.8424   -20.4616 O.3        1          -0.5732
     17 N1         12.9719   -27.7084   -20.4130 N.pl3      1          -0.5927
     18 H1         12.9650   -27.9532   -19.4744 H          1           0.4149
     19 C12        14.0366   -27.9040   -21.2337 C.ar       1           0.1111
     20 C13        15.3037   -28.4529   -21.0097 C.ar       1          -0.1329
     21 C14        16.2127   -28.5321   -22.0422 C.ar       1          -0.1000
     22 C15        15.8895   -28.0730   -23.3096 C.ar       1          -0.1356
     23 C16        14.6445   -27.5275   -23.5549 C.ar       1          -0.0684
     24 C17        13.7148   -27.4452   -22.5277 C.ar       1          -0.0716
     25 H2          7.3739   -22.8621   -20.4475 H          1           0.1255
     26 H3          6.6775   -21.7997   -21.7166 H          1           0.0765
     27 H4          6.9948   -26.5775   -22.8598 H          1           0.1293
     28 H5          9.1674   -27.5902   -23.3866 H          1           0.1325
     29 H6         11.9213   -26.3793   -24.4521 H          1           0.1729
     30 H7         15.5696   -28.8143   -20.0273 H          1           0.1236
     31 H8         17.1892   -28.9568   -21.8617 H          1           0.1264
     32 H9         16.6137   -28.1417   -24.1078 H          1           0.1272
     33 H10        14.3942   -27.1699   -24.5428 H          1           0.1334
@<TRIPOS>BOND
     1    1    2 1
     2    2    3 2
     3    2    4 1
     4    4   12 ar
     5    4    5 ar
     6    5    9 ar
     7    5    6 1
     8    6    7 1
     9    7    8 1
    10    7   25 1
    11    7   26 1
    12    8    9 1
    13    9   10 ar
    14   10   11 ar
    15   10   27 1
    16   11   12 ar
    17   11   28 1
    18   12   13 1
    19   13   14 2
    20   13   29 1
    21   14   24 1
    22   14   15 1
    23   15   16 1
    24   15   17 2
    25   17   18 1
    26   17   19 1
    27   19   24 ar
    28   19   20 ar
    29   20   21 ar
    30   20   30 1
    31   21   22 ar
    32   21   31 1
    33   22   23 ar
    34   22   32 1
    35   23   24 ar
    36   23   33 1
