AVX17257_0, 3
##########                 Name:           AVX17257_0
##########          Protonation:                  100
##########               SMILES:   c1ccc2c(c1)CC(=O)N2Cc3ccccc3C(=O)[O-]
##########            Long Name:   2-[(2-oxoindolin-1-yl)methyl]benzoate
##########          FlexRecCode: 1
##########               Number:                  420
##########   Ligand Source File: /raid1/people/rgc/Examples/sampl4/screening/ligands/build_1//sampl4-hivint-00000
##########           GlobalRank: 71
##########                 Rank:                    1
##########               Setnum:                   10
##########             Matchnum:                16659
##########                Cloud:                    1
##########        Electrostatic:           -45.400314
##########        Van der Waals:           -14.301392
##########  Ligand Polar Desolv:            24.927143
########## Ligand Apolar Desolv:            -3.053895
##########      Internal Energy:             0.000000
##########      Receptor Energy: 0.0
########## Receptor Desolvation:             0.000000
########## Receptor Hydrophobic:             0.000000
##########         Total Energy: -37.83
##########        Ligand Charge:            -1.000000
##########            Arbitrary:    +999.9990
##########     heavy atom count:   20
##########           pose count:    1
##########        Ligand Energy:             0.000000
# num electro vdwattr vdwrepu polsolv apolsol rdesolv rhydroe totalscore fullpol fullapo
#   1  -26.52   -4.12    3.30   15.34   -0.20    0.00    0.00     -12.20   30.93   -0.40
#   2   20.81   -2.21    0.72   -8.12   -0.08    0.00    0.00      11.13  -18.36   -0.17
#   3  -36.87   -3.53    3.39   13.87   -0.16    0.00    0.00     -23.30   29.32   -0.33
#   4   -3.35   -1.33    0.50    2.25   -0.14    0.00    0.00      -2.06    6.67   -0.41
#   5   -1.75   -2.15    1.83    0.83   -0.15    0.00    0.00      -1.39    2.53   -0.46
#   6   -1.04   -0.84    0.21    0.36   -0.11    0.00    0.00      -1.41    1.59   -0.47
#   7   -0.34   -0.28    0.02    0.10   -0.06    0.00    0.00      -0.56    0.89   -0.47
#   8   -0.90   -0.25    0.01    0.23   -0.04    0.00    0.00      -0.94    2.33   -0.42
#   9   -1.14   -0.48    0.04    0.43   -0.08    0.00    0.00      -1.23    2.27   -0.41
#  10    2.90   -0.28    0.01   -0.93   -0.06    0.00    0.00       1.63   -5.31   -0.32
#  11  -10.32   -0.49    0.02    2.09    0.17    0.00    0.00      -8.53   11.04    0.89
#  12    6.34   -0.39    0.02   -1.28   -0.09    0.00    0.00       4.59   -8.68   -0.59
#  13   -3.48   -0.20    0.00    1.33    0.04    0.00    0.00      -2.32   13.63    0.42
#  14   -1.27   -0.44    0.02    0.15   -0.08    0.00    0.00      -1.62    0.57   -0.30
#  15   -2.82   -1.06    0.10    0.40   -0.15    0.00    0.00      -3.53    1.16   -0.43
#  16   -1.10   -2.10    0.60    0.06   -0.21    0.00    0.00      -2.75    0.13   -0.47
#  17   -3.37   -2.46    0.82    0.21   -0.25    0.00    0.00      -5.04    0.40   -0.47
#  18   -2.51   -3.05    2.03    0.39   -0.24    0.00    0.00      -3.38    0.77   -0.47
#  19   -4.09   -1.75    0.57    1.12   -0.19    0.00    0.00      -4.34    2.69   -0.45
#  20    3.90   -0.88    0.08   -0.30   -0.21    0.00    0.00       2.58   -1.01   -0.70
#  21    3.95   -0.93    1.26   -1.10   -0.11    0.00    0.00       3.08   -2.66   -0.26
#  22    0.52   -0.15    0.02   -0.46   -0.05    0.00    0.00      -0.13   -2.41   -0.28
#  23    0.17   -0.02    0.00   -0.06   -0.01    0.00    0.00       0.08   -2.07   -0.28
#  24    0.54   -0.03    0.00   -0.07   -0.01    0.00    0.00       0.43   -2.47   -0.21
#  25    2.41   -0.13    0.01   -0.26   -0.03    0.00    0.00       2.00   -1.82   -0.22
#  26    1.26   -0.06    0.00   -0.06   -0.01    0.00    0.00       1.14   -1.01   -0.25
#  27    0.70   -0.18    0.01   -0.21   -0.05    0.00    0.00       0.27   -1.14   -0.28
#  28    1.25   -0.12    0.01   -0.13   -0.04    0.00    0.00       0.97   -1.06   -0.28
#  29    0.77   -1.01    1.98   -0.08   -0.12    0.00    0.00       1.54   -0.19   -0.28
#  30    2.24   -0.47    0.08   -0.13   -0.14    0.00    0.00       1.58   -0.26   -0.28
#  31    3.76   -0.84    0.56   -0.58   -0.14    0.00    0.00       2.76   -1.13   -0.28
#  32    3.97   -0.35    0.06   -0.47   -0.09    0.00    0.00       3.13   -1.38   -0.27

@<TRIPOS>MOLECULE
       AVX17257_0       100
   32    34     0     0     0



@<TRIPOS>ATOM
      1 O1         10.5947   -22.8555   -20.7803 O.co2      1          -0.6828
      2 C1         11.1326   -22.7412   -21.8725 C.2        1           0.5203
      3 O2         12.2866   -23.1153   -22.0280 O.co2      1          -0.6830
      4 C2         10.3876   -22.1576   -23.0043 C.ar       1          -0.1302
      5 C3         10.4352   -20.7812   -23.2410 C.ar       1          -0.0823
      6 C4          9.7366   -20.2426   -24.3010 C.ar       1          -0.1405
      7 C5          8.9893   -21.0618   -25.1292 C.ar       1          -0.1250
      8 C6          8.9375   -22.4255   -24.9010 C.ar       1          -0.1284
      9 C7          9.6357   -22.9789   -23.8480 C.ar       1          -0.0711
     10 C8          9.5831   -24.4652   -23.6047 C.3        1           0.1681
     11 N1         10.6681   -25.1191   -24.3403 N.am       1          -0.5481
     12 C9         10.8115   -25.0579   -25.6749 C.2        1           0.5198
     13 O3         10.0879   -24.4704   -26.4510 O.2        1          -0.4976
     14 C10        12.0462   -25.8598   -26.0276 C.3        1          -0.1132
     15 C11        12.5502   -26.3635   -24.6948 C.ar       1          -0.1523
     16 C12        13.6264   -27.1430   -24.3345 C.ar       1          -0.0686
     17 C13        13.8412   -27.4499   -23.0023 C.ar       1          -0.1507
     18 C14        12.9731   -26.9716   -22.0376 C.ar       1          -0.0839
     19 C15        11.8940   -26.1908   -22.3959 C.ar       1          -0.1351
     20 C16        11.6747   -25.8723   -23.7349 C.ar       1           0.1588
     21 H1         11.0175   -20.1407   -22.5950 H          1           0.1276
     22 H2          9.7725   -19.1790   -24.4851 H          1           0.1145
     23 H3          8.4436   -20.6345   -25.9575 H          1           0.1116
     24 H4          8.3519   -23.0587   -25.5511 H          1           0.1059
     25 H5          9.6958   -24.6632   -22.5387 H          1           0.1096
     26 H6          8.6248   -24.8558   -23.9474 H          1           0.1139
     27 H7         11.7863   -26.6950   -26.6780 H          1           0.1192
     28 H8         12.7926   -25.2228   -26.5022 H          1           0.1183
     29 H9         14.3018   -27.5149   -25.0907 H          1           0.1245
     30 H10        14.6843   -28.0614   -22.7166 H          1           0.1250
     31 H11        13.1409   -27.2111   -20.9980 H          1           0.1276
     32 H12        11.2204   -25.8214   -21.6369 H          1           0.1281
@<TRIPOS>BOND
     1    1    2 1
     2    2    3 2
     3    2    4 1
     4    4    9 ar
     5    4    5 ar
     6    5    6 ar
     7    5   21 1
     8    6    7 ar
     9    6   22 1
    10    7    8 ar
    11    7   23 1
    12    8    9 ar
    13    8   24 1
    14    9   10 1
    15   10   11 1
    16   10   25 1
    17   10   26 1
    18   11   20 1
    19   11   12 am
    20   12   13 2
    21   12   14 1
    22   14   15 1
    23   14   27 1
    24   14   28 1
    25   15   20 ar
    26   15   16 ar
    27   16   17 ar
    28   16   29 1
    29   17   18 ar
    30   17   30 1
    31   18   19 ar
    32   18   31 1
    33   19   20 ar
    34   19   32 1
