AVX101119_0, 3
##########                 Name:          AVX101119_0
##########          Protonation:                   65
##########               SMILES:   C[NH+](Cc1cccc(c1C(=O)[O-])OC)Cc2cc3c(cc2C(=O)NCc4ccc(cc4)OC)OCO3
##########            Long Name:   )methylcarbamoyl]-1,3-benzodioxol-5-yl]methyl-methyl-ammonio]methyl]benzoate
##########          FlexRecCode: 1
##########               Number:                  424
##########   Ligand Source File: /raid1/people/rgc/Examples/sampl4/screening/ligands/build_1//sampl4-hivint-00000
##########           GlobalRank: 49
##########                 Rank:                    1
##########               Setnum:                  184
##########             Matchnum:                13876
##########                Cloud:                    1
##########        Electrostatic:           -23.027517
##########        Van der Waals:           -28.419941
##########  Ligand Polar Desolv:            15.194947
########## Ligand Apolar Desolv:            -3.460564
##########      Internal Energy:             0.000000
##########      Receptor Energy: 0.0
########## Receptor Desolvation:             0.000000
########## Receptor Hydrophobic:             0.000000
##########         Total Energy: -39.71
##########        Ligand Charge:             0.000000
##########            Arbitrary:    +999.9990
##########     heavy atom count:   36
##########           pose count:    1
##########        Ligand Energy:             0.000000
# num electro vdwattr vdwrepu polsolv apolsol rdesolv rhydroe totalscore fullpol fullapo
#   1   -0.01   -0.21    0.02    0.00    0.00    0.00    0.00      -0.19    0.03    0.03
#   2    0.18   -0.45    0.03    0.09    0.17    0.00    0.00       0.03    0.50    0.93
#   3   -0.14   -0.82    0.12   -0.02   -0.07    0.00    0.00      -0.93   -0.08   -0.31
#   4    0.55   -1.82    0.72   -0.15   -0.14    0.00    0.00      -0.84   -0.47   -0.42
#   5    0.16   -1.41    0.24   -0.08   -0.16    0.00    0.00      -1.25   -0.21   -0.45
#   6    0.19   -0.92    0.09   -0.16   -0.12    0.00    0.00      -0.92   -0.50   -0.37
#   7   -0.08   -0.87    0.29    0.26   -0.15    0.00    0.00      -0.54    0.77   -0.44
#   8    0.00   -0.79    0.21   -0.73    0.47    0.00    0.00      -0.84   -3.61    2.32
#   9    0.73   -1.13    0.60    0.55   -0.16    0.00    0.00       0.60    2.28   -0.65
#  10   -1.05   -2.13    1.87   -0.49    0.11    0.00    0.00      -1.70   -1.39    0.32
#  11   -0.17   -0.58    0.05   -0.10   -0.08    0.00    0.00      -0.88   -0.49   -0.41
#  12   -0.03   -0.42    0.03   -0.03   -0.07    0.00    0.00      -0.53   -0.19   -0.45
#  13    0.01   -0.27    0.01    0.00   -0.04    0.00    0.00      -0.29   -0.01   -0.33
#  14    0.04   -0.29    0.01    0.00   -0.04    0.00    0.00      -0.27    0.04   -0.33
#  15   -0.04   -0.14    0.00    0.00    0.04    0.00    0.00      -0.14   -0.05    0.50
#  16    0.01   -0.06    0.00    0.02    0.00    0.00    0.00      -0.03    0.64    0.02
#  17   -0.02   -0.13    0.00   -0.02    0.03    0.00    0.00      -0.13   -0.32    0.52
#  18   -0.36   -0.44    0.03   -0.07   -0.05    0.00    0.00      -0.88   -0.44   -0.34
#  19   -0.12   -0.55    0.06   -0.02   -0.07    0.00    0.00      -0.71   -0.13   -0.39
#  20    0.27   -0.41    0.03    0.11   -0.06    0.00    0.00      -0.07    0.47   -0.26
#  21   -2.68   -0.56    0.03   -0.61    0.04    0.00    0.00      -3.78   -2.46    0.16
#  22    3.38   -0.01    0.00    0.04    0.03    0.00    0.00       3.44    0.54    0.33
#  23   -0.18   -0.83    0.18   -0.25   -0.11    0.00    0.00      -1.18   -0.95   -0.41
#  24    0.64   -0.95    0.27    0.10   -0.10    0.00    0.00      -0.04    0.28   -0.29
#  25   -1.21   -1.28    0.24   -0.02   -0.11    0.00    0.00      -2.38   -0.06   -0.30
#  26   -1.42   -1.36    0.14   -0.36   -0.18    0.00    0.00      -3.18   -0.81   -0.40
#  27   -0.42   -2.67    0.92   -0.13   -0.23    0.00    0.00      -2.54   -0.27   -0.47
#  28   -1.18   -2.45    0.74    0.19   -0.19    0.00    0.00      -2.89    0.42   -0.42
#  29    2.07   -1.72    0.44   -0.38   -0.13    0.00    0.00       0.28   -0.94   -0.31
#  30   -3.74   -1.73    0.74    1.92    0.14    0.00    0.00      -2.67    4.90    0.36
#  31    0.37   -1.35    0.40   -0.03    0.01    0.00    0.00      -0.60   -0.07    0.03
#  32   -3.01   -1.51    0.30    0.93   -0.16    0.00    0.00      -3.45    2.33   -0.40
#  33   15.40   -2.49    0.95   -3.85   -0.07    0.00    0.00       9.94   -8.86   -0.15
#  34  -27.73   -5.17    3.48    5.74   -0.15    0.00    0.00     -23.84   11.18   -0.30
#  35  -13.81   -1.98    0.52    7.96   -0.24    0.00    0.00      -7.55   19.80   -0.59
#  36    0.01   -0.94    0.21   -0.03   -0.11    0.00    0.00      -0.86   -0.11   -0.45
#  37    0.03   -0.85    0.25    0.02   -0.09    0.00    0.00      -0.64    0.08   -0.46
#  38   -0.02   -0.03    0.00    0.01   -0.01    0.00    0.00      -0.05    0.48   -0.28
#  39   -0.01   -0.14    0.04    0.04   -0.03    0.00    0.00      -0.11    0.31   -0.26
#  40   -0.01   -0.03    0.00    0.01   -0.01    0.00    0.00      -0.04    0.28   -0.26
#  41   -0.38   -1.17    1.99    0.21   -0.07    0.00    0.00       0.58    0.65   -0.22
#  42   -0.55   -0.44    0.13    0.39   -0.10    0.00    0.00      -0.57    1.08   -0.28
#  43    0.05   -0.80    1.68    0.07   -0.09    0.00    0.00       0.91    0.22   -0.28
#  44   -0.07   -0.22    0.02    0.13   -0.08    0.00    0.00      -0.22    0.48   -0.28
#  45   -0.15   -0.01    0.00    0.20    0.03    0.00    0.00       0.07    2.75    0.43
#  46    0.02   -0.08    0.01    0.10   -0.02    0.00    0.00       0.03    1.21   -0.22
#  47    0.01   -0.01    0.00    0.01    0.00    0.00    0.00       0.01    0.91   -0.28
#  48    0.00   -0.01    0.00    0.01    0.00    0.00    0.00       0.00    0.90   -0.28
#  49    0.57   -0.09    0.00    0.06   -0.02    0.00    0.00       0.54    0.67   -0.18
#  50    0.98   -0.20    0.06    0.04   -0.05    0.00    0.00       0.83    0.24   -0.26
#  51    0.52   -0.11    0.00    0.21   -0.02    0.00    0.00       0.60    2.11   -0.23
#  52    0.31   -0.52    0.25    0.41   -0.05    0.00    0.00       0.41    1.56   -0.18
#  53   -0.04   -0.51    0.49    0.34   -0.06    0.00    0.00       0.22    1.38   -0.23
#  54    0.12   -0.11    0.01    0.36   -0.03    0.00    0.00       0.36    3.35   -0.28
#  55    1.65   -0.34    0.20   -0.04   -0.06    0.00    0.00       1.41   -0.16   -0.20
#  56    2.08   -0.51    0.20    0.98   -0.10    0.00    0.00       2.65    2.70   -0.27
#  57    0.93   -0.23    0.02    0.77   -0.08    0.00    0.00       1.41    2.89   -0.28
#  58    0.00   -1.32    2.28    0.78   -0.14    0.00    0.00       1.60    1.55   -0.28
#  59    0.09   -0.68    0.34    0.00   -0.09    0.00    0.00      -0.34    0.00   -0.22
#  60    1.96   -0.40    0.15   -0.18   -0.09    0.00    0.00       1.45   -0.57   -0.28
#  61    0.79   -0.32    0.04   -0.10   -0.10    0.00    0.00       0.32   -0.26   -0.26
#  62    1.45   -0.74    0.44   -0.10   -0.12    0.00    0.00       0.94   -0.23   -0.26
#  63    0.00   -0.18    0.03    0.08   -0.05    0.00    0.00      -0.13    0.42   -0.28
#  64   -0.02   -0.12    0.02   -0.01   -0.03    0.00    0.00      -0.16   -0.13   -0.28

@<TRIPOS>MOLECULE
      AVX101119_0        65
   64    67     0     0     0



@<TRIPOS>ATOM
      1 C1          2.0877   -44.8004     7.3014 C.3        1           0.0255
      2 O1          3.4524   -44.3953     7.1767 O.3        1          -0.3155
      3 C2          3.9891   -44.4108     5.9284 C.ar       1           0.1401
      4 C3          5.3106   -44.0353     5.7355 C.ar       1          -0.2115
      5 C4          5.8541   -44.0522     4.4656 C.ar       1          -0.0575
      6 C5          5.0819   -44.4427     3.3871 C.ar       1          -0.1567
      7 C6          5.6771   -44.4598     2.0027 C.3        1           0.1668
      8 N1          6.2694   -45.7741     1.7421 N.am       1          -0.7151
      9 C7          6.8640   -46.0226     0.5582 C.2        1           0.5659
     10 O2          6.9088   -45.1558    -0.2933 O.2        1          -0.5313
     11 C8          7.4607   -47.3469     0.2957 C.ar       1          -0.1103
     12 C9          6.6627   -48.4938     0.3279 C.ar       1          -0.0562
     13 C10         7.2250   -49.7307     0.0818 C.ar       1           0.0387
     14 C11         8.5884   -49.8339    -0.1988 C.ar       1           0.0866
     15 O3          8.8920   -51.1476    -0.4025 O.3        1          -0.2956
     16 C12         7.7920   -51.8888     0.1573 C.3        1           0.2108
     17 O4          6.6788   -50.9819     0.0529 O.3        1          -0.2983
     18 C13         9.3799   -48.6940    -0.2305 C.ar       1          -0.1314
     19 C14         8.8232   -47.4561     0.0087 C.ar       1          -0.0417
     20 C15         9.6858   -46.2212    -0.0336 C.3        1           0.0560
     21 N2         10.9385   -46.4738     0.6907 N.4        1          -0.3751
     22 H1         11.4289   -47.2416     0.2571 H          1           0.4301
     23 C16        10.6363   -46.8124     2.0879 C.3        1          -0.0649
     24 C17        11.7794   -45.2699     0.6494 C.3        1           0.0513
     25 C18        12.4863   -45.1963    -0.6794 C.ar       1          -0.0860
     26 C19        11.9003   -44.5360    -1.7369 C.ar       1          -0.1562
     27 C20        12.5455   -44.4645    -2.9611 C.ar       1          -0.0788
     28 C21        13.7821   -45.0536    -3.1353 C.ar       1          -0.2074
     29 C22        14.3879   -45.7231    -2.0827 C.ar       1           0.1660
     30 O5         15.6021   -46.3026    -2.2526 O.3        1          -0.2655
     31 C23        16.7496   -45.4966    -1.9779 C.3        1           0.0183
     32 C24        13.7408   -45.7932    -0.8393 C.ar       1          -0.1584
     33 C25        14.3759   -46.4952     0.2874 C.2        1           0.5202
     34 O6         15.1076   -45.8844     1.0545 O.co2      1          -0.7057
     35 O7         14.1724   -47.6895     0.4570 O.co2      1          -0.6303
     36 C26         3.7647   -44.8179     3.5767 C.ar       1          -0.0571
     37 C27         3.2181   -44.8077     4.8454 C.ar       1          -0.1533
     38 H2          1.7853   -44.7419     8.3470 H          1           0.1031
     39 H3          1.4572   -44.1422     6.7035 H          1           0.0571
     40 H4          1.9794   -45.8261     6.9486 H          1           0.0577
     41 H5          5.9140   -43.7295     6.5775 H          1           0.1311
     42 H6          6.8828   -43.7600     4.3149 H          1           0.1274
     43 H7          4.8960   -44.2612     1.2689 H          1           0.0837
     44 H8          6.4482   -43.6929     1.9291 H          1           0.0814
     45 H9          6.2336   -46.4657     2.4214 H          1           0.4035
     46 H10         5.6081   -48.4128     0.5455 H          1           0.1484
     47 H11         7.6050   -52.7928    -0.4222 H          1           0.1424
     48 H12         7.9885   -52.1355     1.2008 H          1           0.0947
     49 H13        10.4346   -48.7769    -0.4474 H          1           0.1413
     50 H14         9.9099   -45.9700    -1.0704 H          1           0.1571
     51 H15         9.1560   -45.3917     0.4348 H          1           0.1539
     52 H16        11.5658   -46.9999     2.6255 H          1           0.1174
     53 H17        10.1066   -45.9830     2.5564 H          1           0.1205
     54 H18        10.0124   -47.7056     2.1186 H          1           0.1201
     55 H19        11.1549   -44.3859     0.7783 H          1           0.1697
     56 H20        12.5165   -45.3140     1.4512 H          1           0.1153
     57 H21        10.9331   -44.0721    -1.6113 H          1           0.1248
     58 H22        12.0779   -43.9449    -3.7843 H          1           0.1272
     59 H23        14.2780   -44.9931    -4.0927 H          1           0.1308
     60 H24        17.6537   -46.0800    -2.1531 H          1           0.1022
     61 H25        16.7469   -44.6253    -2.6327 H          1           0.0525
     62 H26        16.7239   -45.1701    -0.9383 H          1           0.0516
     63 H27         3.1637   -45.1228     2.7327 H          1           0.1337
     64 H28         2.1903   -45.1044     4.9934 H          1           0.1349
@<TRIPOS>BOND
     1    1    2 1
     2    1   38 1
     3    1   39 1
     4    1   40 1
     5    2    3 1
     6    3   37 ar
     7    3    4 ar
     8    4    5 ar
     9    4   41 1
    10    5    6 ar
    11    5   42 1
    12    6    7 1
    13    6   36 ar
    14    7    8 1
    15    7   43 1
    16    7   44 1
    17    8    9 am
    18    8   45 1
    19    9   10 2
    20    9   11 1
    21   11   19 ar
    22   11   12 ar
    23   12   13 ar
    24   12   46 1
    25   13   17 1
    26   13   14 ar
    27   14   15 1
    28   14   18 ar
    29   15   16 1
    30   16   17 1
    31   16   47 1
    32   16   48 1
    33   18   19 ar
    34   18   49 1
    35   19   20 1
    36   20   21 1
    37   20   50 1
    38   20   51 1
    39   21   22 1
    40   21   23 1
    41   21   24 1
    42   23   52 1
    43   23   53 1
    44   23   54 1
    45   24   25 1
    46   24   55 1
    47   24   56 1
    48   25   32 ar
    49   25   26 ar
    50   26   27 ar
    51   26   57 1
    52   27   28 ar
    53   27   58 1
    54   28   29 ar
    55   28   59 1
    56   29   30 1
    57   29   32 ar
    58   30   31 1
    59   31   60 1
    60   31   61 1
    61   31   62 1
    62   32   33 1
    63   33   34 1
    64   33   35 2
    65   36   37 ar
    66   36   63 1
    67   37   64 1
