AVX38747_0, 3
##########                 Name:           AVX38747_0
##########          Protonation:                  100
##########               SMILES:   )C[C@@H]([C@H]2Cc3ccc4c(c3C(=O)[O-])OC[C@H](O4)CCC(=O)[O-])NC(=O)CCCCC[NH3+]
##########            Long Name:   ]methyl]-2-(3-oxido-3-oxo-propyl)-2,3-dihydro-1,4-benzodioxine-5-carboxylate
##########          FlexRecCode: 1
##########               Number:                  145
##########   Ligand Source File: /raid1/people/rgc/Examples/sampl4/screening/ligands/build_1//sampl4-hivint-00000
##########           GlobalRank: 122
##########                 Rank:                    1
##########               Setnum:                   24
##########             Matchnum:                 9986
##########                Cloud:                    1
##########        Electrostatic:           -42.952557
##########        Van der Waals:           -17.260632
##########  Ligand Polar Desolv:            31.095352
########## Ligand Apolar Desolv:            -2.474483
##########      Internal Energy:             0.000000
##########      Receptor Energy: 0.0
########## Receptor Desolvation:             0.000000
########## Receptor Hydrophobic:             0.000000
##########         Total Energy: -31.59
##########        Ligand Charge:            -1.000000
##########            Arbitrary:    +999.9990
##########     heavy atom count:   37
##########           pose count:    1
##########        Ligand Energy:             0.000000
# num electro vdwattr vdwrepu polsolv apolsol rdesolv rhydroe totalscore fullpol fullapo
#   1   -1.15   -0.15    0.01   -1.47    0.07    0.00    0.00      -2.70  -17.20    0.86
#   2    1.52    0.00    0.00    0.35    0.02    0.00    0.00       1.88   12.96    0.58
#   3    0.70    0.00    0.00    0.42    0.02    0.00    0.00       1.13   13.47    0.58
#   4    1.14   -0.01    0.00    1.25    0.05    0.00    0.00       2.43   14.41    0.60
#   5   -0.01   -0.05    0.00    0.03   -0.02    0.00    0.00      -0.06    0.69   -0.49
#   6   -0.13   -0.02    0.00   -0.05    0.00    0.00    0.00      -0.21   -2.26   -0.24
#   7   -0.10   -0.03    0.00   -0.02    0.00    0.00    0.00      -0.15   -0.87   -0.22
#   8   -0.06   -0.01    0.00    0.00    0.00    0.00    0.00      -0.08    0.07   -0.19
#   9   -0.08   -0.01    0.00    0.01    0.00    0.00    0.00      -0.09    0.59   -0.24
#  10    0.35   -0.06    0.00   -0.15   -0.02    0.00    0.00       0.12   -5.89   -0.66
#  11   -0.45   -0.09    0.00    0.40    0.02    0.00    0.00      -0.12    9.70    0.37
#  12   -0.46   -0.08    0.00    0.33    0.07    0.00    0.00      -0.15   10.10    2.05
#  13    0.11   -0.17    0.01   -0.24   -0.03    0.00    0.00      -0.32   -2.54   -0.30
#  14   -0.04   -0.23    0.01    0.07   -0.03    0.00    0.00      -0.22    0.56   -0.27
#  15   -0.04   -0.39    0.03    0.11   -0.06    0.00    0.00      -0.35    0.81   -0.43
#  16   -0.03   -0.37    0.03    0.07   -0.06    0.00    0.00      -0.36    0.54   -0.47
#  17   -0.03   -0.46    0.07    0.09   -0.07    0.00    0.00      -0.41    0.62   -0.47
#  18   -0.12   -0.54    0.05    0.28   -0.09    0.00    0.00      -0.41    1.48   -0.47
#  19   -0.13   -0.47    0.03    0.38   -0.07    0.00    0.00      -0.25    2.21   -0.40
#  20   -0.05   -0.42    0.03    0.24   -0.05    0.00    0.00      -0.24    1.80   -0.35
#  21   -0.08   -0.23    0.01    0.13   -0.02    0.00    0.00      -0.20    0.93   -0.15
#  22   -0.20   -0.79    0.12    0.33   -0.05    0.00    0.00      -0.59    1.20   -0.19
#  23   -0.80   -1.13    0.20    0.40   -0.09    0.00    0.00      -1.42    1.43   -0.32
#  24   -1.09   -1.41    0.35    0.41   -0.12    0.00    0.00      -1.86    1.28   -0.38
#  25   -1.85   -1.16    0.21    0.69   -0.15    0.00    0.00      -2.27    2.06   -0.46
#  26    0.97   -0.93    0.14   -0.16   -0.09    0.00    0.00      -0.08   -0.56   -0.30
#  27   -5.99   -0.83    0.05    3.12    0.23    0.00    0.00      -3.42    8.40    0.62
#  28    1.24   -0.59    0.04   -0.58   -0.04    0.00    0.00       0.07   -1.85   -0.12
#  29   -1.87   -1.14    0.27    0.62   -0.07    0.00    0.00      -2.20    1.48   -0.18
#  30   -2.99   -1.15    0.24    1.70   -0.10    0.00    0.00      -2.30    4.14   -0.24
#  31   13.92   -1.80    0.80   -6.19   -0.06    0.00    0.00       6.68  -16.93   -0.16
#  32  -32.73   -3.49    3.61   12.37   -0.17    0.00    0.00     -20.40   30.01   -0.41
#  33  -15.51   -1.33    0.70    9.32   -0.12    0.00    0.00      -6.93   32.09   -0.43
#  34    0.96   -1.07    0.45   -0.20   -0.04    0.00    0.00       0.10   -0.56   -0.12
#  35   -8.65   -0.74    0.08    3.71    0.20    0.00    0.00      -5.40   11.51    0.61
#  36    1.33   -0.81    0.09   -0.12   -0.09    0.00    0.00       0.41   -0.41   -0.30
#  37   -1.55   -0.86    0.11    1.53   -0.10    0.00    0.00      -0.87    6.12   -0.40
#  38    6.85   -0.82    0.09   -5.29   -0.03    0.00    0.00       0.80  -21.14   -0.11
#  39   -4.75   -0.31    0.01    4.95   -0.06    0.00    0.00      -0.17   32.44   -0.41
#  40  -11.10   -2.48    1.67   10.73   -0.14    0.00    0.00      -1.32   30.03   -0.39
#  41    0.17   -0.02    0.00    0.06    0.00    0.00    0.00       0.21    3.40   -0.28
#  42    0.18   -0.01    0.00    0.04    0.00    0.00    0.00       0.21    2.77   -0.28
#  43    0.07    0.00    0.00    0.01    0.00    0.00    0.00       0.07    0.96   -0.28
#  44    0.07   -0.01    0.00    0.02    0.00    0.00    0.00       0.08    1.50   -0.28
#  45    0.07   -0.01    0.00    0.02    0.00    0.00    0.00       0.07    0.93   -0.28
#  46    0.06   -0.01    0.00    0.00    0.00    0.00    0.00       0.06    0.42   -0.28
#  47    0.04    0.00    0.00    0.00    0.00    0.00    0.00       0.04   -0.17   -0.28
#  48    0.04   -0.01    0.00    0.00    0.00    0.00    0.00       0.03   -0.07   -0.28
#  49    0.05    0.00    0.00    0.00    0.00    0.00    0.00       0.05   -0.06   -0.28
#  50    0.04    0.00    0.00    0.00    0.00    0.00    0.00       0.04   -0.48   -0.28
#  51    0.22    0.00    0.00   -0.08    0.01    0.00    0.00       0.15   -5.32    0.58
#  52    0.10   -0.07    0.00   -0.07   -0.02    0.00    0.00      -0.06   -1.05   -0.25
#  53    0.04   -0.17    0.03   -0.16   -0.04    0.00    0.00      -0.30   -1.04   -0.28
#  54    0.03   -0.03    0.00   -0.03   -0.01    0.00    0.00      -0.03   -0.99   -0.28
#  55    0.03   -0.05    0.00   -0.03   -0.01    0.00    0.00      -0.06   -0.74   -0.28
#  56    0.02   -0.08    0.01   -0.06   -0.02    0.00    0.00      -0.13   -0.84   -0.28
#  57    0.16   -0.14    0.02   -0.22   -0.04    0.00    0.00      -0.22   -1.48   -0.28
#  58    0.36   -0.09    0.01   -0.09   -0.03    0.00    0.00       0.15   -0.97   -0.27
#  59    0.26   -0.03    0.00   -0.01   -0.01    0.00    0.00       0.22   -0.22   -0.23
#  60    0.26   -0.24    0.03   -0.05   -0.06    0.00    0.00      -0.06   -0.21   -0.25
#  61    0.13   -0.64    0.49   -0.79   -0.09    0.00    0.00      -0.89   -2.53   -0.28
#  62    0.46   -0.51    0.53   -0.90   -0.08    0.00    0.00      -0.50   -3.26   -0.28
#  63    1.42   -0.24    0.03   -0.93   -0.08    0.00    0.00       0.21   -3.46   -0.28
#  64    1.29   -0.11    0.00   -0.23   -0.03    0.00    0.00       0.93   -2.30   -0.28
#  65    2.62   -0.51    0.27   -0.89   -0.09    0.00    0.00       1.40   -2.66   -0.28
#  66    1.19   -0.92    1.72   -0.47   -0.10    0.00    0.00       1.41   -1.39   -0.28
#  67    0.71   -0.59    0.29   -0.92   -0.11    0.00    0.00      -0.61   -2.31   -0.27
#  68    0.53   -0.32    0.05   -0.77   -0.08    0.00    0.00      -0.58   -2.79   -0.28
#  69    3.62   -0.87    1.73   -0.76   -0.11    0.00    0.00       3.61   -1.92   -0.28
#  70    5.76   -0.59    0.91   -1.14   -0.08    0.00    0.00       4.85   -3.85   -0.28

@<TRIPOS>MOLECULE
       AVX38747_0       100
   70    73     0     0     0



@<TRIPOS>ATOM
      1 N1          8.8506   -21.1860   -25.8437 N.4        1          -0.6383
      2 H1          8.5224   -22.1358   -25.7542 H          1           0.4356
      3 H2          8.4019   -20.6081   -25.1488 H          1           0.4342
      4 H3          9.8501   -21.1612   -25.7073 H          1           0.4358
      5 C1          8.5268   -20.6801   -27.1843 C.3        1          -0.0102
      6 C2          7.0114   -20.7177   -27.3912 C.3        1          -0.1522
      7 C3          6.3309   -19.8415   -26.3375 C.3        1          -0.1196
      8 C4          4.8154   -19.8791   -26.5444 C.3        1          -0.1037
      9 C5          4.1349   -19.0030   -25.4906 C.3        1          -0.1441
     10 C6          4.4673   -19.5219   -24.1153 C.2        1           0.5132
     11 O1          5.0452   -18.8098   -23.3217 O.2        1          -0.5498
     12 N2          4.1221   -20.7773   -23.7673 N.am       1          -0.7081
     13 C7          4.4449   -21.2818   -22.4303 C.3        1           0.1493
     14 C8          3.1722   -21.7681   -21.7051 C.3        1          -0.0846
     15 C9          3.0683   -23.2422   -22.0329 C.ar       1          -0.1029
     16 C10         1.9947   -24.1110   -21.9299 C.ar       1          -0.1144
     17 C11         2.1354   -25.4360   -22.2931 C.ar       1          -0.1252
     18 C12         3.3517   -25.8975   -22.7611 C.ar       1          -0.1195
     19 C13         4.4235   -25.0327   -22.8645 C.ar       1          -0.0856
     20 C14         4.2843   -23.7038   -22.5008 C.ar       1          -0.0739
     21 C15         5.2885   -22.5713   -22.5194 C.3        1          -0.0591
     22 C16         6.2282   -22.6752   -21.3165 C.3        1          -0.0517
     23 C17         7.3246   -23.6636   -21.6194 C.ar       1          -0.0798
     24 C18         7.1546   -24.9962   -21.3162 C.ar       1          -0.1125
     25 C19         8.1586   -25.9100   -21.5898 C.ar       1          -0.1347
     26 C20         9.3465   -25.4954   -22.1715 C.ar       1           0.0504
     27 O2         10.3221   -26.4111   -22.4231 O.3        1          -0.3012
     28 C21        11.3473   -26.0221   -23.3437 C.3        1           0.0520
     29 C22        12.5246   -26.9943   -23.2456 C.3        1          -0.0821
     30 C23        13.3695   -26.9020   -24.5178 C.3        1          -0.1793
     31 C24        13.8903   -25.4965   -24.6742 C.2        1           0.4914
     32 O3         14.6023   -25.0108   -23.8119 O.co2      1          -0.7008
     33 O4         13.5995   -24.8452   -25.6630 O.co2      1          -0.7094
     34 C25        11.8127   -24.6069   -22.9753 C.3        1           0.0245
     35 O5         10.6859   -23.7278   -23.0621 O.3        1          -0.2951
     36 C26         9.5327   -24.1548   -22.4869 C.ar       1           0.0611
     37 C27         8.5142   -23.2293   -22.2142 C.ar       1          -0.1008
     38 C28         8.6985   -21.8076   -22.5466 C.2        1           0.5466
     39 O6          8.3578   -21.3866   -23.6437 O.co2      1          -0.6873
     40 O7          9.1926   -21.0465   -21.7259 O.co2      1          -0.6873
     41 H4          8.8814   -19.6539   -27.2810 H          1           0.1328
     42 H5          9.0116   -21.3044   -27.9351 H          1           0.1343
     43 H6          6.7710   -20.3423   -28.3861 H          1           0.0896
     44 H7          6.6568   -21.7438   -27.2946 H          1           0.0875
     45 H8          6.5712   -20.2167   -25.3428 H          1           0.0737
     46 H9          6.6855   -18.8153   -26.4342 H          1           0.0768
     47 H10         4.5751   -19.5037   -27.5392 H          1           0.0760
     48 H11         4.4608   -20.9052   -26.4478 H          1           0.0722
     49 H12         4.4896   -17.9768   -25.5873 H          1           0.0917
     50 H13         3.0554   -19.0298   -25.6380 H          1           0.0979
     51 H14         3.6598   -21.3468   -24.4019 H          1           0.4031
     52 H15         4.9613   -20.5208   -21.8450 H          1           0.1070
     53 H16         3.2724   -21.6261   -20.6291 H          1           0.0876
     54 H17         2.2975   -21.2352   -22.0779 H          1           0.0712
     55 H18         1.0444   -23.7512   -21.5641 H          1           0.1115
     56 H19         1.2964   -26.1110   -22.2113 H          1           0.1174
     57 H20         3.4637   -26.9334   -23.0453 H          1           0.1213
     58 H21         5.3734   -25.3942   -23.2302 H          1           0.1232
     59 H22         5.8589   -22.5868   -23.4482 H          1           0.1107
     60 H23         6.6661   -21.6982   -21.1120 H          1           0.0856
     61 H24         5.6667   -23.0113   -20.4448 H          1           0.0662
     62 H25         6.2333   -25.3303   -20.8623 H          1           0.1175
     63 H26         8.0152   -26.9528   -21.3479 H          1           0.1247
     64 H27        10.9507   -26.0266   -24.3590 H          1           0.0765
     65 H28        13.1382   -26.7359   -22.3826 H          1           0.0821
     66 H29        12.1481   -28.0109   -23.1324 H          1           0.0726
     67 H30        14.2084   -27.5946   -24.4478 H          1           0.0646
     68 H31        12.7561   -27.1605   -25.3809 H          1           0.0549
     69 H32        12.2051   -24.6021   -21.9583 H          1           0.0725
     70 H33        12.5870   -24.2819   -23.6702 H          1           0.1162
@<TRIPOS>BOND
     1    1    2 1
     2    1    3 1
     3    1    4 1
     4    1    5 1
     5    5    6 1
     6    5   41 1
     7    5   42 1
     8    6    7 1
     9    6   43 1
    10    6   44 1
    11    7    8 1
    12    7   45 1
    13    7   46 1
    14    8    9 1
    15    8   47 1
    16    8   48 1
    17    9   10 1
    18    9   49 1
    19    9   50 1
    20   10   11 2
    21   10   12 am
    22   12   13 1
    23   12   51 1
    24   13   21 1
    25   13   14 1
    26   13   52 1
    27   14   15 1
    28   14   53 1
    29   14   54 1
    30   15   20 ar
    31   15   16 ar
    32   16   17 ar
    33   16   55 1
    34   17   18 ar
    35   17   56 1
    36   18   19 ar
    37   18   57 1
    38   19   20 ar
    39   19   58 1
    40   20   21 1
    41   21   22 1
    42   21   59 1
    43   22   23 1
    44   22   60 1
    45   22   61 1
    46   23   37 ar
    47   23   24 ar
    48   24   25 ar
    49   24   62 1
    50   25   26 ar
    51   25   63 1
    52   26   36 ar
    53   26   27 1
    54   27   28 1
    55   28   29 1
    56   28   34 1
    57   28   64 1
    58   29   30 1
    59   29   65 1
    60   29   66 1
    61   30   31 1
    62   30   67 1
    63   30   68 1
    64   31   32 1
    65   31   33 2
    66   34   35 1
    67   34   69 1
    68   34   70 1
    69   35   36 1
    70   36   37 ar
    71   37   38 1
    72   38   39 1
    73   38   40 2
