AVX38779_0, 3
##########                 Name:           AVX38779_0
##########          Protonation:                   61
##########               SMILES:   C@H](C)NC(=O)c1ccccc1C[NH+](CC=C)Cc2ccc3c(c2C(=O)[O-])OC[C@H](O3)CCC(=O)[O-]
##########            Long Name:   ]methyl]-2-(3-oxido-3-oxo-propyl)-2,3-dihydro-1,4-benzodioxine-5-carboxylate
##########          FlexRecCode: 1
##########               Number:                  421
##########   Ligand Source File: /raid1/people/rgc/Examples/sampl4/screening/ligands/build_1//sampl4-hivint-00000
##########           GlobalRank: 59
##########                 Rank:                    1
##########               Setnum:                  156
##########             Matchnum:                 9721
##########                Cloud:                    1
##########        Electrostatic:           -48.981861
##########        Van der Waals:           -12.065406
##########  Ligand Polar Desolv:            24.776958
########## Ligand Apolar Desolv:            -2.674911
##########      Internal Energy:             0.000000
##########      Receptor Energy: 0.0
########## Receptor Desolvation:             0.000000
########## Receptor Hydrophobic:             0.000000
##########         Total Energy: -38.95
##########        Ligand Charge:            -1.000000
##########            Arbitrary:    +999.9990
##########     heavy atom count:   37
##########           pose count:    1
##########        Ligand Energy:             0.000000
# num electro vdwattr vdwrepu polsolv apolsol rdesolv rhydroe totalscore fullpol fullapo
#   1   -0.06   -0.12    0.00    0.12   -0.01    0.00    0.00      -0.08    1.65   -0.20
#   2   -0.07   -0.21    0.01    0.08   -0.03    0.00    0.00      -0.21    0.70   -0.24
#   3    0.13   -0.62    0.23   -0.20   -0.05    0.00    0.00      -0.51   -0.98   -0.25
#   4   -0.20   -0.86    0.17    0.17   -0.06    0.00    0.00      -0.79    0.53   -0.19
#   5   -0.67   -0.43    0.04    0.74    0.25    0.00    0.00      -0.07    5.39    1.82
#   6    0.69   -0.72    0.11   -0.84   -0.12    0.00    0.00      -0.88   -4.39   -0.63
#   7   -1.90   -2.51    1.60    1.24    0.07    0.00    0.00      -1.50    4.01    0.23
#   8   -0.08   -0.28    0.01    0.10   -0.04    0.00    0.00      -0.28    0.88   -0.30
#   9   -0.06   -0.14    0.00    0.06   -0.02    0.00    0.00      -0.16    0.99   -0.44
#  10   -0.08   -0.06    0.00    0.03   -0.01    0.00    0.00      -0.13    1.00   -0.47
#  11   -0.08   -0.06    0.00    0.01   -0.01    0.00    0.00      -0.14    0.48   -0.47
#  12   -0.11   -0.11    0.00    0.00   -0.01    0.00    0.00      -0.23    0.05   -0.39
#  13   -0.07   -0.26    0.01    0.02   -0.02    0.00    0.00      -0.33    0.17   -0.23
#  14    0.08   -0.44    0.04    0.03   -0.06    0.00    0.00      -0.35    0.15   -0.28
#  15   -0.51   -0.36    0.01   -0.02    0.01    0.00    0.00      -0.87   -0.14    0.07
#  16    0.72    0.00    0.00   -0.09    0.01    0.00    0.00       0.64   -2.51    0.29
#  17    0.02   -0.19    0.01    0.01   -0.04    0.00    0.00      -0.19    0.09   -0.37
#  18   -0.12   -0.19    0.00   -0.01   -0.03    0.00    0.00      -0.34   -0.10   -0.35
#  19   -0.07   -0.29    0.01    0.08   -0.04    0.00    0.00      -0.31    0.67   -0.34
#  20    0.13   -0.95    0.17    0.00   -0.09    0.00    0.00      -0.73    0.00   -0.28
#  21   -1.37   -1.66    0.47    0.11   -0.10    0.00    0.00      -2.55    0.35   -0.31
#  22   -2.37   -3.55    2.96   -0.03   -0.16    0.00    0.00      -3.15   -0.08   -0.40
#  23   -3.74   -3.01    3.13    0.44   -0.19    0.00    0.00      -3.38    1.04   -0.46
#  24    1.60   -1.62    0.91    0.05   -0.10    0.00    0.00       0.84    0.14   -0.30
#  25   -8.44   -1.14    0.17    2.64    0.24    0.00    0.00      -6.54    6.81    0.62
#  26    0.92   -0.65    0.05   -0.62   -0.04    0.00    0.00      -0.33   -1.74   -0.12
#  27   -1.21   -0.39    0.01    0.35   -0.04    0.00    0.00      -1.28    1.48   -0.18
#  28   -3.16   -0.46    0.02    0.98   -0.07    0.00    0.00      -2.68    3.63   -0.25
#  29   17.74   -1.55    0.99   -4.88   -0.05    0.00    0.00      12.26  -15.82   -0.16
#  30  -30.71   -2.95    6.28    8.80   -0.13    0.00    0.00     -18.70   28.86   -0.41
#  31  -31.95   -2.77    2.84   11.78   -0.16    0.00    0.00     -20.26   30.71   -0.43
#  32    0.22   -0.74    0.08   -0.18   -0.04    0.00    0.00      -0.67   -0.50   -0.12
#  33   -2.84   -0.59    0.03    2.27    0.07    0.00    0.00      -1.05    8.20    0.27
#  34    1.33   -0.91    0.15   -0.05   -0.08    0.00    0.00       0.44   -0.18   -0.30
#  35   -1.23   -0.96    0.13    0.89   -0.10    0.00    0.00      -1.28    3.38   -0.40
#  36    2.06   -0.75    0.12   -2.48   -0.03    0.00    0.00      -1.08  -11.43   -0.15
#  37   -0.11   -2.52    4.07    3.22   -0.06    0.00    0.00       4.60   11.32   -0.22
#  38   -1.71   -0.27    0.01    3.04   -0.07    0.00    0.00       0.99   24.26   -0.59
#  39    0.01   -0.02    0.00   -0.01   -0.01    0.00    0.00      -0.01   -0.29   -0.26
#  40    0.03   -0.02    0.00    0.00   -0.01    0.00    0.00       0.00   -0.20   -0.28
#  41    0.03   -0.06    0.00   -0.04   -0.02    0.00    0.00      -0.09   -0.67   -0.28
#  42    0.03   -0.03    0.00   -0.01   -0.01    0.00    0.00      -0.02   -0.41   -0.28
#  43    0.03   -0.07    0.00   -0.03   -0.02    0.00    0.00      -0.10   -0.47   -0.28
#  44    0.10   -0.66    1.74   -0.09   -0.05    0.00    0.00       1.02   -0.44   -0.26
#  45    0.13   -0.43    0.14   -0.09   -0.10    0.00    0.00      -0.35   -0.24   -0.28
#  46    0.06   -0.13    0.01   -0.03   -0.04    0.00    0.00      -0.13   -0.21   -0.28
#  47    0.06   -0.40    0.12   -0.07   -0.09    0.00    0.00      -0.37   -0.21   -0.28
#  48    0.29    0.00    0.00   -0.08    0.01    0.00    0.00       0.22   -2.74    0.45
#  49    0.09   -0.02    0.00   -0.02    0.00    0.00    0.00       0.04   -0.97   -0.22
#  50    0.08   -0.01    0.00   -0.01    0.00    0.00    0.00       0.07   -0.81   -0.28
#  51    0.10   -0.01    0.00    0.00    0.00    0.00    0.00       0.09   -0.27   -0.28
#  52    0.14   -0.02    0.00    0.02   -0.01    0.00    0.00       0.13    0.83   -0.28
#  53    0.55   -0.19    0.02    0.32   -0.04    0.00    0.00       0.67    2.06   -0.27
#  54    0.27   -0.25    0.06    0.07   -0.03    0.00    0.00       0.12    0.38   -0.15
#  55    0.11   -0.10    0.01    0.02   -0.02    0.00    0.00       0.03    0.27   -0.20
#  56    0.10   -0.02    0.00    0.05   -0.01    0.00    0.00       0.12    2.20   -0.28
#  57    0.08   -0.02    0.00    0.00    0.00    0.00    0.00       0.06    0.15   -0.22
#  58    0.04   -0.04    0.00   -0.01   -0.01    0.00    0.00      -0.01   -0.39   -0.28
#  59    0.05   -0.10    0.01   -0.04   -0.03    0.00    0.00      -0.11   -0.36   -0.27
#  60    0.38   -0.59    0.24   -0.12   -0.05    0.00    0.00      -0.14   -0.35   -0.14
#  61    0.20   -0.32    0.08    0.37   -0.06    0.00    0.00       0.26    1.58   -0.27
#  62    2.60   -1.42    2.43    0.33   -0.12    0.00    0.00       3.83    0.80   -0.28
#  63    5.64   -0.58    0.19   -0.71   -0.14    0.00    0.00       4.40   -1.39   -0.28
#  64    1.47   -0.33    0.08   -0.50   -0.08    0.00    0.00       0.64   -1.79   -0.28
#  65    0.75   -0.15    0.01   -0.35   -0.05    0.00    0.00       0.21   -2.07   -0.28
#  66    1.07   -0.07    0.00   -0.07   -0.02    0.00    0.00       0.92   -1.19   -0.28
#  67    0.90   -0.22    0.02   -0.48   -0.06    0.00    0.00       0.17   -2.23   -0.27
#  68    0.68   -0.09    0.00   -0.18   -0.02    0.00    0.00       0.39   -2.42   -0.28
#  69    0.57   -0.31    0.07   -0.42   -0.08    0.00    0.00      -0.17   -1.44   -0.28
#  70    1.67   -0.35    0.09   -0.90   -0.09    0.00    0.00       0.43   -2.81   -0.28

@<TRIPOS>MOLECULE
       AVX38779_0        61
   70    72     0     0     0



@<TRIPOS>ATOM
      1 C1          4.4957   -15.2701   -20.0644 C.3        1          -0.1558
      2 C2          5.7815   -14.4540   -20.2118 C.3        1          -0.1309
      3 C3          6.9405   -15.3877   -20.5662 C.3        1           0.1401
      4 C4          8.2263   -14.5717   -20.7135 C.3        1          -0.1614
      5 N1          6.6485   -16.0712   -21.8286 N.am       1          -0.7087
      6 C5          7.5343   -16.9488   -22.3404 C.2        1           0.5743
      7 O1          8.5753   -17.1731   -21.7544 O.2        1          -0.5617
      8 C6          7.2396   -17.6387   -23.6144 C.ar       1          -0.0767
      9 C7          7.0415   -16.8997   -24.7822 C.ar       1          -0.0702
     10 C8          6.7674   -17.5495   -25.9676 C.ar       1          -0.1007
     11 C9          6.6882   -18.9307   -26.0008 C.ar       1          -0.0901
     12 C10         6.8835   -19.6687   -24.8472 C.ar       1          -0.0996
     13 C11         7.1640   -19.0314   -23.6560 C.ar       1          -0.0575
     14 C12         7.3822   -19.8374   -22.4015 C.3        1           0.0442
     15 N2          6.3513   -20.8793   -22.3034 N.4        1          -0.3539
     16 H1          6.4089   -21.4862   -23.1074 H          1           0.4383
     17 C13         5.0238   -20.2519   -22.2577 C.3        1           0.0230
     18 C14         3.9766   -21.2632   -22.6470 C.2        1          -0.1876
     19 C15         3.0238   -21.5771   -21.8045 C.2        1          -0.1347
     20 C16         6.5639   -21.6650   -21.0805 C.3        1           0.0473
     21 C17         7.6561   -22.6761   -21.3166 C.ar       1          -0.1299
     22 C18         8.9673   -22.3486   -21.0517 C.ar       1          -0.1185
     23 C19         9.9770   -23.2727   -21.2651 C.ar       1          -0.1212
     24 C20         9.6797   -24.5372   -21.7470 C.ar       1           0.0629
     25 O2         10.6835   -25.4346   -21.9474 O.3        1          -0.2959
     26 C21        10.3871   -26.5523   -22.7907 C.3        1           0.0501
     27 C22        10.2763   -26.0906   -24.2452 C.3        1          -0.0836
     28 C23        11.6777   -25.9342   -24.8388 C.3        1          -0.1800
     29 C24        12.4485   -24.9115   -24.0446 C.2        1           0.4904
     30 O3         12.0352   -23.7677   -23.9598 O.co2      1          -0.6991
     31 O4         13.4855   -25.2280   -23.4868 O.co2      1          -0.7065
     32 C25         9.0474   -27.1356   -22.3260 C.3        1           0.0178
     33 O5          8.0559   -26.1175   -22.4954 O.3        1          -0.2584
     34 C26         8.3614   -24.8833   -22.0204 C.ar       1           0.0871
     35 C27         7.3381   -23.9503   -21.7996 C.ar       1          -0.1235
     36 C28         5.9379   -24.3075   -22.0790 C.2        1           0.5218
     37 O6          5.2468   -24.8057   -21.2010 O.co2      1          -0.6917
     38 O7          5.4652   -24.1064   -23.1893 O.co2      1          -0.6351
     39 H2          3.6701   -14.6048   -19.8121 H          1           0.0600
     40 H3          4.2786   -15.7787   -21.0039 H          1           0.0577
     41 H4          4.6227   -16.0083   -19.2726 H          1           0.0564
     42 H5          5.6544   -13.7158   -21.0037 H          1           0.0660
     43 H6          5.9987   -13.9454   -19.2726 H          1           0.0780
     44 H7          7.0675   -16.1259   -19.7743 H          1           0.0917
     45 H8          9.0520   -15.2370   -20.9660 H          1           0.0658
     46 H9          8.0994   -13.8335   -21.5054 H          1           0.0598
     47 H10         8.4436   -14.0632   -19.7742 H          1           0.0557
     48 H11         5.8178   -15.8922   -22.2963 H          1           0.4010
     49 H12         7.1024   -15.8217   -24.7574 H          1           0.1224
     50 H13         6.6139   -16.9791   -26.8717 H          1           0.1277
     51 H14         6.4727   -19.4346   -26.9314 H          1           0.1274
     52 H15         6.8199   -20.7464   -24.8798 H          1           0.1273
     53 H16         8.3672   -20.3031   -22.4354 H          1           0.1132
     54 H17         7.3199   -19.1818   -21.5329 H          1           0.1442
     55 H18         4.8255   -19.8941   -21.2473 H          1           0.1242
     56 H19         4.9944   -19.4127   -22.9527 H          1           0.1203
     57 H20         4.0115   -21.7293   -23.6207 H          1           0.1307
     58 H21         2.2733   -22.3018   -22.0836 H          1           0.1112
     59 H22         2.9887   -21.1110   -20.8310 H          1           0.1029
     60 H23         6.8539   -20.9999   -20.2671 H          1           0.1682
     61 H24         5.6413   -22.1818   -20.8158 H          1           0.1022
     62 H25         9.2097   -21.3656   -20.6758 H          1           0.1269
     63 H26        11.0021   -23.0057   -21.0549 H          1           0.1354
     64 H27        11.1721   -27.3030   -22.6997 H          1           0.0807
     65 H28         9.7187   -26.8303   -24.8197 H          1           0.0864
     66 H29         9.7563   -25.1333   -24.2839 H          1           0.0744
     67 H30        12.1975   -26.8915   -24.8002 H          1           0.0635
     68 H31        11.5986   -25.6053   -25.8750 H          1           0.0556
     69 H32         8.7923   -28.0052   -22.9316 H          1           0.0756
     70 H33         9.1114   -27.4189   -21.2755 H          1           0.1230
@<TRIPOS>BOND
     1    1    2 1
     2    1   39 1
     3    1   40 1
     4    1   41 1
     5    2    3 1
     6    2   42 1
     7    2   43 1
     8    3    4 1
     9    3    5 1
    10    3   44 1
    11    4   45 1
    12    4   46 1
    13    4   47 1
    14    5    6 am
    15    5   48 1
    16    6    7 2
    17    6    8 1
    18    8   13 ar
    19    8    9 ar
    20    9   10 ar
    21    9   49 1
    22   10   11 ar
    23   10   50 1
    24   11   12 ar
    25   11   51 1
    26   12   13 ar
    27   12   52 1
    28   13   14 1
    29   14   15 1
    30   14   53 1
    31   14   54 1
    32   15   16 1
    33   15   17 1
    34   15   20 1
    35   17   18 1
    36   17   55 1
    37   17   56 1
    38   18   19 2
    39   18   57 1
    40   19   58 1
    41   19   59 1
    42   20   21 1
    43   20   60 1
    44   20   61 1
    45   21   35 ar
    46   21   22 ar
    47   22   23 ar
    48   22   62 1
    49   23   24 ar
    50   23   63 1
    51   24   34 ar
    52   24   25 1
    53   25   26 1
    54   26   27 1
    55   26   32 1
    56   26   64 1
    57   27   28 1
    58   27   65 1
    59   27   66 1
    60   28   29 1
    61   28   67 1
    62   28   68 1
    63   29   30 1
    64   29   31 2
    65   32   33 1
    66   32   69 1
    67   32   70 1
    68   33   34 1
    69   34   35 ar
    70   35   36 1
    71   36   37 1
    72   36   38 2
