AVX38788_1, 3
##########                 Name:           AVX38788_0
##########          Protonation:                   77
##########               SMILES:   C[NH+](Cc1ccccc1C(=O)NCC2CCC2)Cc3ccc4c(c3C(=O)[O-])OC[C@H](O4)CCC(=O)[O-]
##########            Long Name:   ]methyl]-2-(3-oxido-3-oxo-propyl)-2,3-dihydro-1,4-benzodioxine-5-carboxylate
##########          FlexRecCode: 1
##########               Number:                  223
##########   Ligand Source File: /raid1/people/rgc/Examples/sampl4/screening/ligands/build_1//sampl4-hivint-00000
##########           GlobalRank: 119
##########                 Rank:                    1
##########               Setnum:                   46
##########             Matchnum:                   94
##########                Cloud:                    1
##########        Electrostatic:           -19.194950
##########        Van der Waals:           -19.180201
##########  Ligand Polar Desolv:             8.805713
########## Ligand Apolar Desolv:            -2.301646
##########      Internal Energy:             0.000000
##########      Receptor Energy: 0.0
########## Receptor Desolvation:             0.000000
########## Receptor Hydrophobic:             0.000000
##########         Total Energy: -31.87
##########        Ligand Charge:            -1.000000
##########            Arbitrary:    +999.9990
##########     heavy atom count:   36
##########           pose count:    1
##########        Ligand Energy:             0.000000
# num electro vdwattr vdwrepu polsolv apolsol rdesolv rhydroe totalscore fullpol fullapo
#   1   -0.23   -0.11    0.00   -0.03   -0.02    0.00    0.00      -0.40   -0.55   -0.41
#   2   -3.48   -0.29    0.01   -0.19    0.02    0.00    0.00      -3.93   -1.29    0.16
#   3    4.75    0.00    0.00    0.09    0.02    0.00    0.00       4.85    1.76    0.32
#   4    0.45   -0.62    0.07    0.04   -0.08    0.00    0.00      -0.14    0.16   -0.30
#   5   -0.85   -0.92    0.12   -0.12   -0.08    0.00    0.00      -1.85   -0.48   -0.30
#   6   -0.39   -1.01    0.27   -0.18   -0.10    0.00    0.00      -1.40   -0.76   -0.40
#   7   -0.18   -1.42    0.85   -0.18   -0.13    0.00    0.00      -1.05   -0.69   -0.47
#   8   -0.51   -1.17    0.21   -0.25   -0.15    0.00    0.00      -1.88   -0.77   -0.47
#   9   -0.77   -1.04    0.12   -0.18   -0.15    0.00    0.00      -2.02   -0.51   -0.44
#  10   -1.67   -1.00    0.18   -0.17   -0.12    0.00    0.00      -2.79   -0.60   -0.40
#  11   12.16   -1.20    0.35    0.16   -0.19    0.00    0.00      11.27    0.51   -0.63
#  12  -16.77   -1.96    1.22    0.69    0.11    0.00    0.00     -16.71    1.75    0.29
#  13  -14.08   -0.94    0.06   -0.44    0.82    0.00    0.00     -14.58   -1.26    2.31
#  14    3.41   -0.93    0.17   -0.07   -0.17    0.00    0.00       2.41   -0.18   -0.42
#  15   -2.35   -1.03    0.24   -0.01   -0.09    0.00    0.00      -3.24   -0.03   -0.24
#  16   -2.62   -1.26    0.26    0.00   -0.15    0.00    0.00      -3.77   -0.01   -0.33
#  17   -1.32   -1.35    0.61    0.08   -0.13    0.00    0.00      -2.12    0.21   -0.34
#  18   -1.98   -0.55    0.03    0.11   -0.10    0.00    0.00      -2.47    0.37   -0.33
#  19    0.67   -0.36    0.03   -0.12   -0.05    0.00    0.00       0.17   -0.62   -0.26
#  20   -0.42   -0.48    0.08    0.06   -0.06    0.00    0.00      -0.81    0.36   -0.39
#  21   -0.30   -0.36    0.03    0.03   -0.05    0.00    0.00      -0.64    0.24   -0.34
#  22   -0.18   -0.27    0.02    0.07   -0.05    0.00    0.00      -0.41    0.60   -0.46
#  23    0.10   -0.26    0.03    0.01   -0.03    0.00    0.00      -0.15    0.13   -0.30
#  24   -0.46   -0.10    0.00    0.40    0.04    0.00    0.00      -0.13    6.35    0.62
#  25    0.08   -0.08    0.00   -0.10   -0.01    0.00    0.00      -0.10   -1.69   -0.12
#  26   -0.09   -0.03    0.00    0.03    0.00    0.00    0.00      -0.10    1.43   -0.18
#  27   -0.18   -0.02    0.00    0.05    0.00    0.00    0.00      -0.16    3.51   -0.24
#  28    0.38   -0.01    0.00   -0.13    0.00    0.00    0.00       0.23  -15.53   -0.16
#  29   -0.53   -0.01    0.00    0.25    0.00    0.00    0.00      -0.30   28.63   -0.41
#  30   -0.45    0.00    0.00    0.15    0.00    0.00    0.00      -0.30   30.30   -0.43
#  31    0.03   -0.09    0.00   -0.02   -0.01    0.00    0.00      -0.09   -0.41   -0.12
#  32   -0.75   -0.26    0.02    1.00    0.03    0.00    0.00       0.05    8.71    0.27
#  33    0.28   -0.43    0.11   -0.10   -0.04    0.00    0.00      -0.18   -0.77   -0.30
#  34   -0.40   -0.58    0.20    0.64   -0.06    0.00    0.00      -0.20    4.32   -0.41
#  35    7.87   -0.55    0.11   -2.39   -0.03    0.00    0.00       5.02  -14.21   -0.17
#  36  -21.56   -1.32    0.79    5.20   -0.09    0.00    0.00     -16.97   18.97   -0.32
#  37   -7.39   -0.24    0.00    3.15   -0.07    0.00    0.00      -4.55   27.46   -0.59
#  38    0.20   -0.03    0.00    0.04   -0.01    0.00    0.00       0.19    1.22   -0.28
#  39    0.32   -0.02    0.00    0.02    0.00    0.00    0.00       0.31    0.67   -0.18
#  40    0.40   -0.03    0.00    0.06   -0.01    0.00    0.00       0.42    1.87   -0.22
#  41    3.32   -0.33    0.08    0.03   -0.05    0.00    0.00       3.05    0.10   -0.20
#  42    0.87   -0.22    0.02    0.26   -0.06    0.00    0.00       0.87    1.15   -0.27
#  43    0.28   -0.14    0.01    0.26   -0.04    0.00    0.00       0.37    1.87   -0.28
#  44    0.09   -0.26    0.11    0.26   -0.05    0.00    0.00       0.14    1.46   -0.28
#  45    0.60   -0.23    0.03    0.30   -0.06    0.00    0.00       0.64    1.32   -0.28
#  46    1.28   -0.22    0.03    0.32   -0.06    0.00    0.00       1.35    1.25   -0.22
#  47    5.51   -0.01    0.00    0.44    0.09    0.00    0.00       6.02    2.16    0.43
#  48    3.02   -0.34    0.14   -0.04   -0.07    0.00    0.00       2.72   -0.15   -0.28
#  49    2.28   -0.44    0.12   -0.07   -0.11    0.00    0.00       1.78   -0.17   -0.27
#  50    1.23   -0.84    1.11    0.09   -0.09    0.00    0.00       1.50    0.27   -0.28
#  51    2.69   -0.42    0.15   -0.03   -0.10    0.00    0.00       2.29   -0.09   -0.27
#  52    0.87   -0.54    0.14    0.07   -0.12    0.00    0.00       0.41    0.15   -0.28
#  53    0.51   -0.50    0.52   -0.04   -0.08    0.00    0.00       0.42   -0.14   -0.28
#  54    0.17   -0.73    0.39   -0.02   -0.11    0.00    0.00      -0.30   -0.05   -0.28
#  55    0.68   -0.14    0.01   -0.03   -0.04    0.00    0.00       0.48   -0.18   -0.28
#  56    1.91   -0.13    0.01   -0.04   -0.04    0.00    0.00       1.72   -0.28   -0.28
#  57    0.64   -0.08    0.00   -0.07   -0.02    0.00    0.00       0.47   -0.98   -0.23
#  58    2.60   -0.24    0.05   -0.21   -0.06    0.00    0.00       2.15   -0.91   -0.26
#  59    0.16   -0.05    0.00    0.02   -0.01    0.00    0.00       0.11    0.38   -0.18
#  60    0.18   -0.03    0.00   -0.03   -0.01    0.00    0.00       0.11   -1.34   -0.28
#  61    0.16   -0.04    0.00   -0.09   -0.01    0.00    0.00       0.01   -1.87   -0.28
#  62    0.10   -0.01    0.00   -0.02    0.00    0.00    0.00       0.06   -2.03   -0.28
#  63    0.07    0.00    0.00   -0.01    0.00    0.00    0.00       0.05   -1.19   -0.28
#  64    0.06   -0.01    0.00   -0.02    0.00    0.00    0.00       0.04   -2.25   -0.27
#  65    0.07   -0.01    0.00   -0.03    0.00    0.00    0.00       0.02   -2.40   -0.28
#  66    0.09   -0.01    0.00   -0.03    0.00    0.00    0.00       0.05   -1.54   -0.28
#  67    0.21   -0.03    0.00   -0.07   -0.01    0.00    0.00       0.11   -2.91   -0.28

@<TRIPOS>MOLECULE
       AVX38788_0        77
   67    70     0     0     0



@<TRIPOS>ATOM
      1 C1          6.8900   -22.3106   -24.0160 C.3        1          -0.0636
      2 N1          8.2221   -22.4145   -23.4053 N.4        1          -0.3783
      3 H1          8.7519   -23.1338   -23.8741 H          1           0.4150
      4 C2          8.0835   -22.7565   -21.9834 C.3        1           0.0369
      5 C3          7.3661   -24.0752   -21.8514 C.ar       1          -0.0839
      6 C4          5.9897   -24.1077   -21.7610 C.ar       1          -0.0992
      7 C5          5.3298   -25.3174   -21.6400 C.ar       1          -0.0876
      8 C6          6.0442   -26.5021   -21.6088 C.ar       1          -0.1024
      9 C7          7.4205   -26.4838   -21.6987 C.ar       1          -0.0814
     10 C8          8.0923   -25.2668   -21.8264 C.ar       1          -0.1210
     11 C9          9.5668   -25.2400   -21.9290 C.2        1           0.5512
     12 O1         10.1886   -24.2864   -21.5028 O.2        1          -0.5419
     13 N2         10.2220   -26.2728   -22.4952 N.am       1          -0.7103
     14 C10        11.6832   -26.2463   -22.5968 C.3        1           0.1232
     15 C11        12.1229   -27.0347   -23.8321 C.3        1          -0.1276
     16 C12        13.6427   -27.0174   -24.0652 C.3        1          -0.1376
     17 C13        13.3320   -26.8725   -25.5643 C.3        1          -0.1434
     18 C14        11.9917   -26.2456   -25.1455 C.3        1          -0.1315
     19 C15         8.9213   -21.1290   -23.5339 C.3        1           0.0712
     20 C16         9.4954   -21.0060   -24.9217 C.ar       1          -0.1010
     21 C17         9.3607   -19.8275   -25.6215 C.ar       1          -0.1662
     22 C18         9.8839   -19.7079   -26.8982 C.ar       1          -0.1057
     23 C19        10.5490   -20.7717   -27.4875 C.ar       1           0.0510
     24 O2         11.0472   -20.6329   -28.7467 O.3        1          -0.2967
     25 C20        12.0280   -21.5906   -29.1599 C.3        1           0.0496
     26 C21        12.2163   -21.5150   -30.6764 C.3        1          -0.0833
     27 C22        12.6846   -20.1108   -31.0627 C.3        1          -0.1799
     28 C23        12.8702   -20.0362   -32.5564 C.2        1           0.4904
     29 O3         13.6669   -20.7751   -33.1094 O.co2      1          -0.6990
     30 O4         12.2234   -19.2372   -33.2119 O.co2      1          -0.7072
     31 C24        11.5291   -22.9885   -28.7694 C.3        1           0.0174
     32 O5         11.3491   -23.0194   -27.3493 O.3        1          -0.2560
     33 C25        10.6965   -21.9666   -26.7935 C.ar       1           0.1024
     34 C26        10.1708   -22.0871   -25.4983 C.ar       1          -0.1171
     35 C27        10.3235   -23.3466   -24.7523 C.2        1           0.5229
     36 O6         11.2992   -23.5178   -24.0346 O.co2      1          -0.6964
     37 O7          9.4749   -24.2223   -24.8501 O.co2      1          -0.6419
     38 H2          6.3177   -21.5335   -23.5094 H          1           0.1213
     39 H3          6.9929   -22.0568   -25.0711 H          1           0.1320
     40 H4          6.3712   -23.2645   -23.9206 H          1           0.1091
     41 H5          9.0718   -22.8335   -21.5302 H          1           0.1584
     42 H6          7.5111   -21.9794   -21.4768 H          1           0.1311
     43 H7          5.4265   -23.1866   -21.7845 H          1           0.1421
     44 H8          4.2523   -25.3373   -21.5693 H          1           0.1390
     45 H9          5.5229   -27.4433   -21.5132 H          1           0.1385
     46 H10         7.9768   -27.4092   -21.6742 H          1           0.1338
     47 H11         9.7259   -27.0339   -22.8353 H          1           0.4026
     48 H12        12.0225   -25.2142   -22.6847 H          1           0.0786
     49 H13        12.1177   -26.6969   -21.7046 H          1           0.0778
     50 H14        11.6843   -28.0317   -23.8761 H          1           0.0968
     51 H15        14.1405   -26.1476   -23.6363 H          1           0.0837
     52 H16        14.1344   -27.9562   -23.8100 H          1           0.0669
     53 H17        13.9950   -26.1797   -26.0826 H          1           0.0707
     54 H18        13.2253   -27.8256   -26.0822 H          1           0.0813
     55 H19        11.1503   -26.5614   -25.7624 H          1           0.0733
     56 H20        12.0379   -25.1648   -25.0120 H          1           0.0872
     57 H21         8.2189   -20.3142   -23.3576 H          1           0.1567
     58 H22         9.7270   -21.0788   -22.8015 H          1           0.1418
     59 H23         8.8440   -18.9924   -25.1723 H          1           0.1092
     60 H24         9.7727   -18.7795   -27.4385 H          1           0.1344
     61 H25        12.9752   -21.3852   -28.6613 H          1           0.0817
     62 H26        12.9633   -22.2456   -30.9867 H          1           0.0868
     63 H27        11.2694   -21.7311   -31.1713 H          1           0.0741
     64 H28        11.9376   -19.3802   -30.7525 H          1           0.0629
     65 H29        13.6316   -19.8946   -30.5679 H          1           0.0560
     66 H30        10.5795   -23.1916   -29.2648 H          1           0.0766
     67 H31        12.2650   -23.7369   -29.0631 H          1           0.1245
@<TRIPOS>BOND
     1    1    2 1
     2    1   38 1
     3    1   39 1
     4    1   40 1
     5    2    3 1
     6    2    4 1
     7    2   19 1
     8    4    5 1
     9    4   41 1
    10    4   42 1
    11    5   10 ar
    12    5    6 ar
    13    6    7 ar
    14    6   43 1
    15    7    8 ar
    16    7   44 1
    17    8    9 ar
    18    8   45 1
    19    9   10 ar
    20    9   46 1
    21   10   11 1
    22   11   12 2
    23   11   13 am
    24   13   14 1
    25   13   47 1
    26   14   15 1
    27   14   48 1
    28   14   49 1
    29   15   18 1
    30   15   16 1
    31   15   50 1
    32   16   17 1
    33   16   51 1
    34   16   52 1
    35   17   18 1
    36   17   53 1
    37   17   54 1
    38   18   55 1
    39   18   56 1
    40   19   20 1
    41   19   57 1
    42   19   58 1
    43   20   34 ar
    44   20   21 ar
    45   21   22 ar
    46   21   59 1
    47   22   23 ar
    48   22   60 1
    49   23   33 ar
    50   23   24 1
    51   24   25 1
    52   25   26 1
    53   25   31 1
    54   25   61 1
    55   26   27 1
    56   26   62 1
    57   26   63 1
    58   27   28 1
    59   27   64 1
    60   27   65 1
    61   28   29 1
    62   28   30 2
    63   31   32 1
    64   31   66 1
    65   31   67 1
    66   32   33 1
    67   33   34 ar
    68   34   35 1
    69   35   36 1
    70   35   37 2
