AVX38780_0, 3
##########                 Name:           AVX38780_0
##########          Protonation:                   61
##########               SMILES:   c(cc1)CNC(=O)c2ccccc2C[NH+](CC=C)Cc3ccc4c(c3C(=O)[O-])OC[C@H](O4)CCC(=O)[O-]
##########            Long Name:   ]methyl]-2-(3-oxido-3-oxo-propyl)-2,3-dihydro-1,4-benzodioxine-5-carboxylate
##########          FlexRecCode: 1
##########               Number:                   18
##########   Ligand Source File: /raid1/people/rgc/Examples/sampl4/screening/ligands/build_1//sampl4-hivint-00000
##########           GlobalRank: 131
##########                 Rank:                    1
##########               Setnum:                    2
##########             Matchnum:                 6538
##########                Cloud:                    1
##########        Electrostatic:           -18.555111
##########        Van der Waals:           -22.472174
##########  Ligand Polar Desolv:            16.261288
########## Ligand Apolar Desolv:            -3.260741
##########      Internal Energy:             0.000000
##########      Receptor Energy: 0.0
########## Receptor Desolvation:             0.000000
########## Receptor Hydrophobic:             0.000000
##########         Total Energy: -28.03
##########        Ligand Charge:            -1.000000
##########            Arbitrary:    +999.9990
##########     heavy atom count:   42
##########           pose count:    1
##########        Ligand Energy:             0.000000
# num electro vdwattr vdwrepu polsolv apolsol rdesolv rhydroe totalscore fullpol fullapo
#   1    0.01   -0.02    0.00    0.00    0.00    0.00    0.00       0.00   -0.06    0.03
#   2   -0.17   -0.03    0.00    0.04    0.01    0.00    0.00      -0.14    2.72    0.93
#   3    0.07   -0.08    0.00   -0.02   -0.01    0.00    0.00      -0.04   -0.92   -0.31
#   4   -0.12   -0.09    0.00    0.08   -0.02    0.00    0.00      -0.15    2.02   -0.42
#   5   -0.07   -0.23    0.01    0.07   -0.04    0.00    0.00      -0.26    0.83   -0.46
#   6   -0.30   -0.50    0.05    0.19   -0.07    0.00    0.00      -0.63    1.09   -0.37
#   7    0.52   -0.94    0.25   -0.37   -0.12    0.00    0.00      -0.66   -1.32   -0.44
#   8   -3.90   -0.83    0.06    1.45    0.61    0.00    0.00      -2.61    5.49    2.32
#   9    3.59   -1.57    0.33   -1.40   -0.21    0.00    0.00       0.74   -4.20   -0.63
#  10   -1.15   -3.61    2.88    1.48    0.09    0.00    0.00      -0.30    3.62    0.23
#  11   -0.97   -1.46    0.39    0.27   -0.10    0.00    0.00      -1.87    0.84   -0.30
#  12   -0.85   -1.82    0.55    0.37   -0.16    0.00    0.00      -1.91    1.00   -0.44
#  13   -1.92   -1.79    0.35    0.43   -0.20    0.00    0.00      -3.12    1.02   -0.47
#  14   -2.75   -2.56    1.69    0.21   -0.22    0.00    0.00      -3.63    0.45   -0.47
#  15   -2.76   -2.01    0.61    0.00   -0.18    0.00    0.00      -4.32    0.01   -0.39
#  16   -1.05   -1.30    0.23    0.05   -0.09    0.00    0.00      -2.15    0.14   -0.23
#  17    0.66   -0.71    0.07    0.07   -0.10    0.00    0.00      -0.02    0.18   -0.28
#  18   -5.89   -0.62    0.06   -0.08    0.02    0.00    0.00      -6.52   -0.31    0.07
#  19   10.15   -0.01    0.00   -0.38    0.05    0.00    0.00       9.80   -2.28    0.29
#  20    0.32   -0.92    0.26    0.03   -0.12    0.00    0.00      -0.43    0.10   -0.37
#  21   -2.53   -2.18    1.26   -0.06   -0.12    0.00    0.00      -3.63   -0.19   -0.35
#  22   -0.79   -1.30    0.26    0.17   -0.10    0.00    0.00      -1.76    0.60   -0.34
#  23    0.50   -0.27    0.01    0.00   -0.04    0.00    0.00       0.20    0.01   -0.28
#  24   -1.29   -0.27    0.00    0.03   -0.03    0.00    0.00      -1.56    0.31   -0.31
#  25   -0.56   -0.17    0.00   -0.01   -0.02    0.00    0.00      -0.76   -0.10   -0.39
#  26   -0.31   -0.12    0.00    0.05   -0.02    0.00    0.00      -0.41    1.02   -0.46
#  27    0.21   -0.23    0.01    0.01   -0.03    0.00    0.00      -0.02    0.15   -0.30
#  28   -0.39   -0.18    0.00    0.66    0.06    0.00    0.00       0.16    6.76    0.62
#  29    0.10   -0.36    0.03   -0.36   -0.02    0.00    0.00      -0.62   -1.73   -0.12
#  30   -0.16   -0.39    0.06    0.25   -0.03    0.00    0.00      -0.26    1.47   -0.18
#  31   -0.23   -0.10    0.00    0.28   -0.02    0.00    0.00      -0.06    3.61   -0.25
#  32    0.48   -0.15    0.01   -1.07   -0.01    0.00    0.00      -0.75  -15.77   -0.16
#  33   -0.67   -0.29    0.02    3.18   -0.05    0.00    0.00       2.20   28.81   -0.41
#  34   -0.54   -0.06    0.00    0.96   -0.01    0.00    0.00       0.34   30.67   -0.43
#  35    0.23   -1.16    0.40   -0.16   -0.04    0.00    0.00      -0.74   -0.50   -0.12
#  36   -4.54   -1.51    1.02    2.41    0.08    0.00    0.00      -2.54    8.13    0.27
#  37    0.95   -0.54    0.06   -0.03   -0.06    0.00    0.00       0.38   -0.17   -0.30
#  38   -1.93   -0.47    0.03    0.63   -0.08    0.00    0.00      -1.81    3.32   -0.40
#  39   15.19   -0.97    0.17   -3.69   -0.05    0.00    0.00      10.65  -11.28   -0.15
#  40  -24.55   -1.50    0.26    4.65   -0.09    0.00    0.00     -21.23   11.10   -0.22
#  41  -22.61   -1.35    0.71    7.20   -0.18    0.00    0.00     -16.23   24.13   -0.59
#  42   -0.06   -0.50    0.06    0.03   -0.07    0.00    0.00      -0.54    0.22   -0.46
#  43   -0.08   -0.17    0.01    0.07   -0.03    0.00    0.00      -0.21    1.04   -0.46
#  44    0.05    0.00    0.00    0.00    0.00    0.00    0.00       0.04   -0.32   -0.28
#  45    0.03   -0.01    0.00    0.00    0.00    0.00    0.00       0.02   -0.29   -0.27
#  46    0.02   -0.01    0.00    0.00    0.00    0.00    0.00       0.01   -0.29   -0.27
#  47    0.08   -0.01    0.00   -0.01    0.00    0.00    0.00       0.06   -1.13   -0.22
#  48    0.15   -0.04    0.00   -0.05   -0.01    0.00    0.00       0.04   -1.23   -0.28
#  49    0.25   -0.47    0.37   -0.14   -0.07    0.00    0.00      -0.05   -0.55   -0.28
#  50    0.20   -0.58    0.23   -0.14   -0.10    0.00    0.00      -0.40   -0.39   -0.28
#  51    2.73   -0.01    0.00   -0.22    0.03    0.00    0.00       2.53   -3.04    0.44
#  52    0.74   -0.40    0.10   -0.30   -0.07    0.00    0.00       0.08   -0.98   -0.22
#  53    1.76   -0.56    0.42   -0.32   -0.11    0.00    0.00       1.19   -0.83   -0.28
#  54    5.07   -1.47    4.91   -0.10   -0.11    0.00    0.00       8.30   -0.25   -0.28
#  55    3.99   -0.61    0.26    0.43   -0.13    0.00    0.00       3.94    0.93   -0.28
#  56    1.08   -0.22    0.03    0.56   -0.07    0.00    0.00       1.38    2.19   -0.27
#  57    2.38   -0.35    0.08    0.16   -0.05    0.00    0.00       2.22    0.49   -0.15
#  58    1.03   -0.16    0.01    0.06   -0.04    0.00    0.00       0.90    0.31   -0.20
#  59    2.10   -0.61    0.55    0.86   -0.10    0.00    0.00       2.80    2.30   -0.28
#  60    2.58   -0.85    0.99    0.08   -0.08    0.00    0.00       2.72    0.24   -0.22
#  61    0.42   -0.23    0.02   -0.08   -0.06    0.00    0.00       0.08   -0.35   -0.28
#  62    0.30   -0.17    0.03   -0.05   -0.04    0.00    0.00       0.07   -0.32   -0.27
#  63    1.74   -0.08    0.00   -0.02   -0.01    0.00    0.00       1.63   -0.28   -0.14
#  64    0.72   -0.10    0.01    0.17   -0.03    0.00    0.00       0.77    1.68   -0.27
#  65    0.36   -0.03    0.00    0.03   -0.01    0.00    0.00       0.35    0.87   -0.28
#  66    0.14   -0.01    0.00   -0.02   -0.01    0.00    0.00       0.09   -1.36   -0.28
#  67    0.11   -0.10    0.01   -0.21   -0.03    0.00    0.00      -0.22   -1.79   -0.28
#  68    0.18   -0.27    0.09   -0.43   -0.06    0.00    0.00      -0.49   -2.05   -0.28
#  69    0.18   -0.12    0.02   -0.13   -0.03    0.00    0.00      -0.08   -1.17   -0.28
#  70    0.08   -0.02    0.00   -0.04    0.00    0.00    0.00       0.02   -2.22   -0.27
#  71    0.06   -0.01    0.00   -0.04    0.00    0.00    0.00       0.01   -2.42   -0.28
#  72    1.35   -0.87    1.30   -0.62   -0.12    0.00    0.00       1.04   -1.42   -0.28
#  73    1.59   -0.45    0.23   -0.83   -0.08    0.00    0.00       0.46   -2.79   -0.28
#  74    0.09   -0.29    0.18   -0.06   -0.05    0.00    0.00      -0.11   -0.33   -0.28
#  75    0.06   -0.03    0.00   -0.02   -0.01    0.00    0.00       0.01   -0.69   -0.28

@<TRIPOS>MOLECULE
       AVX38780_0        61
   75    78     0     0     0



@<TRIPOS>ATOM
      1 C1          8.6882   -23.4779   -32.3652 C.3        1           0.0252
      2 O1          8.0507   -23.1331   -31.1336 O.3        1          -0.3177
      3 C2          8.1171   -24.0451   -30.1281 C.ar       1           0.1366
      4 C3          7.5152   -23.7782   -28.9070 C.ar       1          -0.2084
      5 C4          7.5837   -24.7069   -27.8867 C.ar       1          -0.0535
      6 C5          8.2520   -25.9015   -28.0815 C.ar       1          -0.1520
      7 C6          8.3257   -26.9127   -26.9665 C.3        1           0.1676
      8 N1          9.5191   -26.6593   -26.1555 N.am       1          -0.7113
      9 C7          9.7923   -27.4448   -25.0949 C.2        1           0.5729
     10 O2          9.0485   -28.3635   -24.8113 O.2        1          -0.5614
     11 C8         10.9967   -27.1891   -24.2764 C.ar       1          -0.0766
     12 C9         12.2638   -27.2340   -24.8605 C.ar       1          -0.0694
     13 C10        13.3833   -26.9940   -24.0912 C.ar       1          -0.1006
     14 C11        13.2523   -26.7096   -22.7433 C.ar       1          -0.0896
     15 C12        11.9997   -26.6637   -22.1583 C.ar       1          -0.0995
     16 C13        10.8713   -26.8961   -22.9176 C.ar       1          -0.0572
     17 C14         9.5070   -26.8399   -22.2800 C.3        1           0.0441
     18 N2          8.9797   -25.4719   -22.3716 N.4        1          -0.3543
     19 H1          9.7233   -24.8125   -22.1975 H          1           0.4381
     20 C15         7.9185   -25.2882   -21.3724 C.3        1           0.0230
     21 C16         7.7188   -23.8167   -21.1166 C.2        1          -0.1882
     22 C17         6.5538   -23.2638   -21.3480 C.2        1          -0.1345
     23 C18         8.4309   -25.2475   -23.7156 C.3        1           0.0472
     24 C19         8.3456   -23.7668   -23.9826 C.ar       1          -0.1298
     25 C20         7.2074   -23.2325   -24.5445 C.ar       1          -0.1183
     26 C21         7.1206   -21.8723   -24.7922 C.ar       1          -0.1211
     27 C22         8.1774   -21.0336   -24.4772 C.ar       1           0.0629
     28 O3          8.0741   -19.6987   -24.7234 O.3        1          -0.2958
     29 C23         9.2958   -18.9538   -24.7493 C.3        1           0.0501
     30 C24        10.0891   -19.3005   -26.0108 C.3        1          -0.0836
     31 C25         9.2585   -18.9520   -27.2475 C.3        1          -0.1799
     32 C26         8.9431   -17.4785   -27.2419 C.2        1           0.4903
     33 O4          9.8478   -16.6612   -27.2548 O.co2      1          -0.6992
     34 O5          7.7831   -17.1034   -27.2242 O.co2      1          -0.7064
     35 C27        10.0998   -19.3469   -23.5043 C.3        1           0.0178
     36 O6         10.3779   -20.7475   -23.5992 O.3        1          -0.2586
     37 C28         9.3338   -21.5572   -23.9106 C.ar       1           0.0870
     38 C29         9.4204   -22.9331   -23.6545 C.ar       1          -0.1235
     39 C30        10.6370   -23.4980   -23.0487 C.2        1           0.5219
     40 O7         10.7317   -23.5828   -21.8320 O.co2      1          -0.6914
     41 O8         11.5534   -23.8827   -23.7619 O.co2      1          -0.6359
     42 C31         8.8525   -26.1701   -29.2976 C.ar       1          -0.0602
     43 C32         8.7822   -25.2468   -30.3229 C.ar       1          -0.1564
     44 H2          8.5603   -22.6654   -33.0804 H          1           0.1014
     45 H3          9.7511   -23.6438   -32.1901 H          1           0.0581
     46 H4          8.2394   -24.3874   -32.7645 H          1           0.0576
     47 H5          6.9935   -22.8448   -28.7543 H          1           0.1316
     48 H6          7.1152   -24.4995   -26.9360 H          1           0.1312
     49 H7          7.4369   -26.8291   -26.3410 H          1           0.0782
     50 H8          8.3797   -27.9159   -27.3890 H          1           0.0796
     51 H9         10.1126   -25.9263   -26.3818 H          1           0.4037
     52 H10        12.3673   -27.4564   -25.9122 H          1           0.1226
     53 H11        14.3641   -27.0283   -24.5418 H          1           0.1278
     54 H12        14.1321   -26.5232   -22.1453 H          1           0.1276
     55 H13        11.9043   -26.4415   -21.1056 H          1           0.1276
     56 H14         8.8351   -27.5238   -22.7988 H          1           0.1137
     57 H15         9.5833   -27.1305   -21.2323 H          1           0.1444
     58 H16         6.9901   -25.7217   -21.7444 H          1           0.1242
     59 H17         8.2041   -25.7829   -20.4441 H          1           0.1205
     60 H18         8.5359   -23.2177   -20.7425 H          1           0.1310
     61 H19         6.4106   -22.2092   -21.1646 H          1           0.1115
     62 H20         5.7367   -23.8627   -21.7221 H          1           0.1030
     63 H21         9.0812   -25.7133   -24.4560 H          1           0.1682
     64 H22         7.4351   -25.6862   -23.7794 H          1           0.1025
     65 H23         6.3779   -23.8776   -24.7936 H          1           0.1270
     66 H24         6.2239   -21.4634   -25.2338 H          1           0.1354
     67 H25         9.0787   -17.8858   -24.7309 H          1           0.0807
     68 H26        11.0178   -18.7301   -26.0244 H          1           0.0863
     69 H27        10.3173   -20.3664   -26.0150 H          1           0.0744
     70 H28         9.8237   -19.1992   -28.1462 H          1           0.0635
     71 H29         8.3298   -19.5225   -27.2341 H          1           0.0555
     72 H30        11.0335   -18.7853   -23.4740 H          1           0.0756
     73 H31         9.5146   -19.1456   -22.6069 H          1           0.1228
     74 H32         9.3738   -27.1041   -29.4474 H          1           0.1305
     75 H33         9.2483   -25.4588   -31.2738 H          1           0.1321
@<TRIPOS>BOND
     1    1    2 1
     2    1   44 1
     3    1   45 1
     4    1   46 1
     5    2    3 1
     6    3   43 ar
     7    3    4 ar
     8    4    5 ar
     9    4   47 1
    10    5    6 ar
    11    5   48 1
    12    6    7 1
    13    6   42 ar
    14    7    8 1
    15    7   49 1
    16    7   50 1
    17    8    9 am
    18    8   51 1
    19    9   10 2
    20    9   11 1
    21   11   16 ar
    22   11   12 ar
    23   12   13 ar
    24   12   52 1
    25   13   14 ar
    26   13   53 1
    27   14   15 ar
    28   14   54 1
    29   15   16 ar
    30   15   55 1
    31   16   17 1
    32   17   18 1
    33   17   56 1
    34   17   57 1
    35   18   19 1
    36   18   20 1
    37   18   23 1
    38   20   21 1
    39   20   58 1
    40   20   59 1
    41   21   22 2
    42   21   60 1
    43   22   61 1
    44   22   62 1
    45   23   24 1
    46   23   63 1
    47   23   64 1
    48   24   38 ar
    49   24   25 ar
    50   25   26 ar
    51   25   65 1
    52   26   27 ar
    53   26   66 1
    54   27   37 ar
    55   27   28 1
    56   28   29 1
    57   29   30 1
    58   29   35 1
    59   29   67 1
    60   30   31 1
    61   30   68 1
    62   30   69 1
    63   31   32 1
    64   31   70 1
    65   31   71 1
    66   32   33 1
    67   32   34 2
    68   35   36 1
    69   35   72 1
    70   35   73 1
    71   36   37 1
    72   37   38 ar
    73   38   39 1
    74   39   40 1
    75   39   41 2
    76   42   43 ar
    77   42   74 1
    78   43   75 1
