AVX38741_1, 3
##########                 Name:           AVX38741_0
##########          Protonation:                   97
##########               SMILES:   c1ccc(cc1)CN2CN(Cc3ccccc3C2=O)Cc4ccc5c(c4C(=O)[O-])OC[C@@H](O5)CCC(=O)[O-]
##########            Long Name:   )methyl]-2-(3-oxido-3-oxo-propyl)-2,3-dihydro-1,4-benzodioxine-5-carboxylate
##########          FlexRecCode: 1
##########               Number:                  541
##########   Ligand Source File: /raid1/people/rgc/Examples/sampl4/screening/ligands/build_1//sampl4-hivint-00000
##########           GlobalRank: 78
##########                 Rank:                    1
##########               Setnum:                    3
##########             Matchnum:                19697
##########                Cloud:                    1
##########        Electrostatic:           -44.476486
##########        Van der Waals:           -21.712780
##########  Ligand Polar Desolv:            33.260071
########## Ligand Apolar Desolv:            -4.235370
##########      Internal Energy:             0.000000
##########      Receptor Energy: 0.0
########## Receptor Desolvation:             0.000000
########## Receptor Hydrophobic:             0.000000
##########         Total Energy: -37.16
##########        Ligand Charge:            -2.000000
##########            Arbitrary:    +999.9990
##########     heavy atom count:   38
##########           pose count:    1
##########        Ligand Energy:             0.000000
# num electro vdwattr vdwrepu polsolv apolsol rdesolv rhydroe totalscore fullpol fullapo
#   1   -0.36   -0.04    0.00    0.68   -0.01    0.00    0.00       0.27   32.54   -0.41
#   2    0.28   -0.04    0.00   -0.35    0.00    0.00    0.00      -0.11  -18.59   -0.16
#   3   -0.33   -0.01    0.00    0.39    0.00    0.00    0.00       0.04   34.76   -0.43
#   4   -0.14   -0.06    0.00    0.15   -0.01    0.00    0.00      -0.06    4.71   -0.24
#   5   -0.08   -0.15    0.00    0.15   -0.02    0.00    0.00      -0.10    1.67   -0.18
#   6    0.07   -0.32    0.02   -0.36   -0.02    0.00    0.00      -0.61   -2.17   -0.12
#   7    0.04   -1.19    0.56   -0.15   -0.03    0.00    0.00      -0.77   -0.53   -0.12
#   8   -2.96   -3.03    3.52    4.15    0.09    0.00    0.00       1.77   11.94    0.27
#   9    1.06   -1.00    0.20   -0.33   -0.08    0.00    0.00      -0.15   -1.26   -0.30
#  10   -2.72   -1.20    0.30    2.33   -0.14    0.00    0.00      -1.43    6.98   -0.41
#  11   20.53   -2.91    2.26   -9.52   -0.08    0.00    0.00      10.29  -20.91   -0.17
#  12  -33.29   -4.44    6.30   19.30   -0.32    0.00    0.00     -12.43   35.85   -0.59
#  13  -25.58   -4.43    4.68   13.64   -0.16    0.00    0.00     -11.85   27.72   -0.32
#  14   -1.21   -0.74    0.18    0.26   -0.07    0.00    0.00      -1.59    1.10   -0.32
#  15    3.33   -0.67    0.22   -0.91   -0.08    0.00    0.00       1.89   -3.51   -0.30
#  16   -8.67   -0.48    0.02    2.71    0.54    0.00    0.00      -5.89   14.28    2.82
#  17    4.12   -0.35    0.01   -1.62   -0.25    0.00    0.00       1.91   -7.66   -1.19
#  18  -12.04   -0.98    0.08    4.48    0.57    0.00    0.00      -7.90   12.83    1.62
#  19    2.89   -1.36    0.98   -1.11   -0.16    0.00    0.00       1.24   -2.97   -0.42
#  20   -1.05   -1.20    0.18    0.86   -0.14    0.00    0.00      -1.35    2.38   -0.38
#  21   -0.66   -0.78    0.08    0.69   -0.12    0.00    0.00      -0.80    2.51   -0.45
#  22   -0.44   -0.97    0.28    0.55   -0.13    0.00    0.00      -0.71    2.04   -0.47
#  23   -0.44   -1.50    0.94    0.43   -0.15    0.00    0.00      -0.71    1.39   -0.47
#  24   -0.64   -1.54    0.44    0.73   -0.20    0.00    0.00      -1.20    1.74   -0.47
#  25   -0.79   -1.89    0.93    0.91   -0.20    0.00    0.00      -1.04    2.09   -0.45
#  26   12.73   -1.70    0.32   -5.38   -0.24    0.00    0.00       5.74  -12.14   -0.54
#  27  -11.22   -2.70    0.81    6.81    0.21    0.00    0.00      -6.11   12.92    0.39
#  28   -3.17   -2.13    0.80    1.52   -0.15    0.00    0.00      -3.13    3.37   -0.33
#  29   -1.80   -3.44    2.04    0.72   -0.25    0.00    0.00      -2.74    1.30   -0.46
#  30   -2.89   -2.99    1.09    0.82   -0.30    0.00    0.00      -4.27    1.27   -0.47
#  31   -1.64   -2.83    0.90    0.74   -0.28    0.00    0.00      -3.11    1.25   -0.47
#  32   -1.68   -2.23    0.73    1.23   -0.20    0.00    0.00      -2.15    2.72   -0.45
#  33   -0.83   -1.48    0.27    0.69   -0.13    0.00    0.00      -1.48    1.79   -0.34
#  34    1.39   -0.52    0.03   -0.71   -0.09    0.00    0.00       0.10   -2.49   -0.33
#  35   -1.11   -0.32    0.03    0.26   -0.05    0.00    0.00      -1.20    2.15   -0.42
#  36   -0.49   -0.20    0.01    0.18   -0.04    0.00    0.00      -0.55    2.04   -0.46
#  37    0.17   -0.34    0.01   -0.02   -0.04    0.00    0.00      -0.22   -0.14   -0.30
#  38   -0.39   -0.18    0.00    0.83    0.05    0.00    0.00       0.32    9.66    0.62
#  39    0.05   -0.01    0.00   -0.03    0.00    0.00    0.00       0.00   -2.62   -0.27
#  40    0.04   -0.02    0.00   -0.07   -0.01    0.00    0.00      -0.06   -3.14   -0.28
#  41    0.08   -0.06    0.00   -0.16   -0.01    0.00    0.00      -0.14   -3.01   -0.28
#  42    0.07   -0.03    0.00   -0.04   -0.01    0.00    0.00      -0.01   -1.62   -0.28
#  43    0.21   -0.12    0.01   -0.37   -0.04    0.00    0.00      -0.31   -2.59   -0.28
#  44    0.25   -0.97    1.48   -1.33   -0.08    0.00    0.00      -0.65   -4.45   -0.28
#  45    0.13   -0.18    0.02   -0.41   -0.05    0.00    0.00      -0.50   -2.19   -0.28
#  46    0.62   -0.56    1.10   -0.44   -0.06    0.00    0.00       0.67   -1.92   -0.26
#  47    4.77   -0.25    0.05   -0.52   -0.06    0.00    0.00       3.99   -1.90   -0.20
#  48    1.39   -0.07    0.00   -0.13   -0.02    0.00    0.00       1.18   -2.03   -0.26
#  49    0.82   -0.13    0.01   -0.23   -0.03    0.00    0.00       0.44   -1.76   -0.24
#  50    2.02   -1.05    2.43   -0.73   -0.11    0.00    0.00       2.55   -1.68   -0.26
#  51    1.91   -0.51    0.61   -0.46   -0.07    0.00    0.00       1.48   -1.73   -0.27
#  52    0.90   -0.09    0.00   -0.18   -0.02    0.00    0.00       0.61   -2.07   -0.28
#  53    0.26   -0.11    0.01   -0.25   -0.03    0.00    0.00      -0.12   -2.07   -0.28
#  54    0.29   -0.25    0.09   -0.35   -0.06    0.00    0.00      -0.28   -1.78   -0.28
#  55    0.43   -0.27    0.03   -0.66   -0.10    0.00    0.00      -0.57   -1.90   -0.28
#  56    1.19   -0.96    2.43   -0.75   -0.10    0.00    0.00       1.80   -1.95   -0.26
#  57    2.87   -0.82    0.46   -1.34   -0.16    0.00    0.00       1.02   -2.31   -0.28
#  58    2.53   -0.54    0.10   -1.24   -0.17    0.00    0.00       0.67   -2.00   -0.28
#  59    1.19   -0.88    0.74   -1.25   -0.16    0.00    0.00      -0.35   -2.25   -0.28
#  60    1.14   -0.66    0.76   -0.85   -0.10    0.00    0.00       0.29   -2.38   -0.28
#  61    0.85   -0.23    0.03   -0.30   -0.05    0.00    0.00       0.30   -1.43   -0.24
#  62    0.58   -0.12    0.00   -0.14   -0.03    0.00    0.00       0.29   -1.07   -0.25
#  63    0.75   -0.04    0.00   -0.17   -0.01    0.00    0.00       0.53   -4.11   -0.28
#  64    0.21   -0.02    0.00   -0.09   -0.01    0.00    0.00       0.10   -4.19   -0.28

@<TRIPOS>MOLECULE
       AVX38741_0        97
   64    68     0     0     0



@<TRIPOS>ATOM
      1 O1          4.9323   -15.4490   -23.8482 O.co2      1          -0.7013
      2 C1          5.0143   -16.4072   -24.5975 C.2        1           0.4917
      3 O2          4.0944   -16.6705   -25.3533 O.co2      1          -0.7112
      4 C2          6.2549   -17.2627   -24.5940 C.3        1          -0.1793
      5 C3          6.4557   -17.8643   -23.2016 C.3        1          -0.0812
      6 C4          7.7151   -18.7328   -23.1980 C.3        1           0.0506
      7 C5          7.9051   -19.3632   -21.8116 C.3        1           0.0196
      8 O3          9.0808   -20.1795   -21.8479 O.3        1          -0.2596
      9 C6          9.2151   -21.0096   -22.9138 C.ar       1           0.0794
     10 C7         10.1206   -22.0790   -22.8453 C.ar       1          -0.1138
     11 C8         10.9138   -22.2992   -21.6254 C.2        1           0.5297
     12 O4         12.0089   -21.7675   -21.5034 O.co2      1          -0.6727
     13 O5         10.4782   -23.0141   -20.7333 O.co2      1          -0.6760
     14 C9         10.2655   -22.9352   -23.9421 C.ar       1          -0.0612
     15 C10        11.2359   -24.0863   -23.8774 C.3        1           0.1116
     16 N1         10.5967   -25.2964   -24.4112 N.3        1          -0.4937
     17 C11         9.4953   -25.7287   -23.5536 C.3        1           0.2798
     18 N2          9.8591   -26.1441   -22.2129 N.am       1          -0.6186
     19 C12         8.8999   -25.8203   -21.1539 C.3        1           0.1501
     20 C13         7.5801   -26.4839   -21.4516 C.ar       1          -0.1005
     21 C14         6.6281   -25.8225   -22.2046 C.ar       1          -0.1010
     22 C15         5.4174   -26.4313   -22.4777 C.ar       1          -0.1237
     23 C16         5.1588   -27.7017   -21.9979 C.ar       1          -0.1217
     24 C17         6.1111   -28.3634   -21.2455 C.ar       1          -0.1293
     25 C18         7.3235   -27.7564   -20.9761 C.ar       1          -0.0961
     26 C19        10.9373   -26.7712   -21.8385 C.2        1           0.5675
     27 O6         10.8540   -27.2124   -20.7089 O.2        1          -0.5396
     28 C20        12.2205   -27.0660   -22.4629 C.ar       1          -0.1296
     29 C21        13.2025   -27.6269   -21.6182 C.ar       1          -0.0724
     30 C22        14.4522   -27.9404   -22.0907 C.ar       1          -0.1314
     31 C23        14.7659   -27.7045   -23.4178 C.ar       1          -0.0989
     32 C24        13.8161   -27.1605   -24.2553 C.ar       1          -0.1028
     33 C25        12.5437   -26.8433   -23.7933 C.ar       1          -0.0393
     34 C26        11.5896   -26.2795   -24.8026 C.3        1           0.0878
     35 C27         9.5206   -22.7248   -25.0813 C.ar       1          -0.1371
     36 C28         8.6258   -21.6699   -25.1476 C.ar       1          -0.1244
     37 C29         8.4688   -20.8130   -24.0695 C.ar       1           0.0338
     38 O7          7.5765   -19.7884   -24.1553 O.3        1          -0.3040
     39 H1          6.1454   -18.0648   -25.3239 H          1           0.0642
     40 H2          7.1189   -16.6509   -24.8534 H          1           0.0549
     41 H3          6.5652   -17.0622   -22.4717 H          1           0.0813
     42 H4          5.5916   -18.4762   -22.9421 H          1           0.0713
     43 H5          8.5832   -18.1224   -23.4470 H          1           0.0749
     44 H6          8.0252   -18.5787   -21.0645 H          1           0.1143
     45 H7          7.0389   -19.9770   -21.5650 H          1           0.0684
     46 H8         12.1196   -23.8503   -24.4705 H          1           0.0159
     47 H9         11.5286   -24.2569   -22.8413 H          1           0.1243
     48 H10         8.7848   -24.9060   -23.4729 H          1           0.1055
     49 H11         8.9916   -26.5626   -24.0424 H          1           0.0856
     50 H12         9.2797   -26.1794   -20.1974 H          1           0.0863
     51 H13         8.7612   -24.7401   -21.1073 H          1           0.0904
     52 H14         6.8301   -24.8299   -22.5795 H          1           0.1273
     53 H15         4.6734   -25.9142   -23.0653 H          1           0.1210
     54 H16         4.2127   -28.1769   -22.2106 H          1           0.1164
     55 H17         5.9090   -29.3558   -20.8704 H          1           0.1167
     56 H18         8.0689   -28.2748   -20.3915 H          1           0.1258
     57 H19        12.9658   -27.8132   -20.5811 H          1           0.1252
     58 H20        15.1893   -28.3697   -21.4282 H          1           0.1243
     59 H21        15.7490   -27.9450   -23.7949 H          1           0.1250
     60 H22        14.0649   -26.9772   -25.2902 H          1           0.1323
     61 H23        11.0542   -27.1201   -25.2442 H          1           0.0912
     62 H24        12.1874   -25.8347   -25.5981 H          1           0.0402
     63 H25         9.6352   -23.3860   -25.9276 H          1           0.1138
     64 H26         8.0468   -21.5134   -26.0458 H          1           0.1222
@<TRIPOS>BOND
     1    1    2 1
     2    2    3 2
     3    2    4 1
     4    4    5 1
     5    4   39 1
     6    4   40 1
     7    5    6 1
     8    5   41 1
     9    5   42 1
    10    6   38 1
    11    6    7 1
    12    6   43 1
    13    7    8 1
    14    7   44 1
    15    7   45 1
    16    8    9 1
    17    9   37 ar
    18    9   10 ar
    19   10   11 1
    20   10   14 ar
    21   11   12 1
    22   11   13 2
    23   14   15 1
    24   14   35 ar
    25   15   16 1
    26   15   46 1
    27   15   47 1
    28   16   34 1
    29   16   17 1
    30   17   18 1
    31   17   48 1
    32   17   49 1
    33   18   19 1
    34   18   26 am
    35   19   20 1
    36   19   50 1
    37   19   51 1
    38   20   25 ar
    39   20   21 ar
    40   21   22 ar
    41   21   52 1
    42   22   23 ar
    43   22   53 1
    44   23   24 ar
    45   23   54 1
    46   24   25 ar
    47   24   55 1
    48   25   56 1
    49   26   27 2
    50   26   28 1
    51   28   33 ar
    52   28   29 ar
    53   29   30 ar
    54   29   57 1
    55   30   31 ar
    56   30   58 1
    57   31   32 ar
    58   31   59 1
    59   32   33 ar
    60   32   60 1
    61   33   34 1
    62   34   61 1
    63   34   62 1
    64   35   36 ar
    65   35   63 1
    66   36   37 ar
    67   36   64 1
    68   37   38 1
