AVX38748_0, 3
##########                 Name:           AVX38748_0
##########          Protonation:                  100
##########               SMILES:   1)C[C@H]([C@@H]2Cc3ccc4c(c3C(=O)[O-])OC[C@H](O4)CCC(=O)[O-])NC(=O)CCCC[NH3+]
##########            Long Name:   ]methyl]-2-(3-oxido-3-oxo-propyl)-2,3-dihydro-1,4-benzodioxine-5-carboxylate
##########          FlexRecCode: 1
##########               Number:                  294
##########   Ligand Source File: /raid1/people/rgc/Examples/sampl4/screening/ligands/build_1//sampl4-hivint-00000
##########           GlobalRank: 83
##########                 Rank:                    1
##########               Setnum:                   16
##########             Matchnum:                 6406
##########                Cloud:                    1
##########        Electrostatic:           -20.245131
##########        Van der Waals:           -28.728561
##########  Ligand Polar Desolv:            16.063519
########## Ligand Apolar Desolv:            -4.036483
##########      Internal Energy:             0.000000
##########      Receptor Energy: 0.0
########## Receptor Desolvation:             0.000000
########## Receptor Hydrophobic:             0.000000
##########         Total Energy: -36.95
##########        Ligand Charge:            -1.000000
##########            Arbitrary:    +999.9990
##########     heavy atom count:   36
##########           pose count:    1
##########        Ligand Energy:             0.000000
# num electro vdwattr vdwrepu polsolv apolsol rdesolv rhydroe totalscore fullpol fullapo
#   1   -3.06   -0.14    0.00   -0.96    0.06    0.00    0.00      -4.10  -13.72    0.86
#   2    2.65    0.00    0.00    0.42    0.02    0.00    0.00       3.09   11.36    0.58
#   3    1.92    0.00    0.00    0.32    0.02    0.00    0.00       2.26   11.71    0.60
#   4    0.97    0.00    0.00    0.31    0.02    0.00    0.00       1.30    9.69    0.58
#   5   -0.05   -0.16    0.00    0.04   -0.04    0.00    0.00      -0.21    0.41   -0.49
#   6   -0.89   -0.29    0.02   -0.23   -0.04    0.00    0.00      -1.42   -1.48   -0.24
#   7   -0.57   -0.48    0.05   -0.04   -0.05    0.00    0.00      -1.09   -0.17   -0.19
#   8   -1.90   -1.03    0.35    0.16   -0.08    0.00    0.00      -2.50    0.49   -0.24
#   9    8.39   -1.30    0.33   -1.62   -0.23    0.00    0.00       5.57   -4.69   -0.66
#  10   -6.61   -1.33    0.28    2.74    0.15    0.00    0.00      -4.78    6.71    0.37
#  11  -15.46   -1.07    0.14    3.02    0.66    0.00    0.00     -12.71    8.95    1.96
#  12    3.04   -0.92    0.14   -1.00   -0.10    0.00    0.00       1.17   -2.41   -0.23
#  13   -2.20   -1.96    0.69    0.37   -0.14    0.00    0.00      -3.24    0.70   -0.27
#  14   -2.85   -3.39    2.03    0.77   -0.23    0.00    0.00      -3.67    1.43   -0.43
#  15   -2.67   -3.91    1.92    0.63   -0.30    0.00    0.00      -4.34    0.98   -0.47
#  16   -2.55   -2.99    0.74    0.72   -0.33    0.00    0.00      -4.42    1.03   -0.47
#  17   -1.90   -3.09    0.93    1.16   -0.30    0.00    0.00      -3.20    1.81   -0.47
#  18   -1.62   -2.44    0.75    1.44   -0.23    0.00    0.00      -2.10    2.84   -0.45
#  19   -1.53   -2.11    0.68    1.09   -0.18    0.00    0.00      -2.05    2.35   -0.39
#  20   -0.82   -0.74    0.08    0.13   -0.04    0.00    0.00      -1.40    0.37   -0.13
#  21   -0.77   -0.79    0.12    0.39   -0.05    0.00    0.00      -1.11    1.24   -0.17
#  22   -0.51   -0.81    0.06    0.12   -0.09    0.00    0.00      -1.23    0.43   -0.31
#  23   -0.46   -1.73    0.49    0.54   -0.15    0.00    0.00      -1.31    1.64   -0.45
#  24    0.01   -1.44    0.54    0.27   -0.13    0.00    0.00      -0.75    0.96   -0.46
#  25    0.07   -0.59    0.06   -0.10   -0.06    0.00    0.00      -0.62   -0.52   -0.30
#  26   -0.43   -0.34    0.02    0.84    0.09    0.00    0.00       0.18    5.81    0.62
#  27    0.10   -0.19    0.01   -0.19   -0.01    0.00    0.00      -0.29   -1.64   -0.12
#  28   -0.22   -0.48    0.09    0.28   -0.04    0.00    0.00      -0.35    1.35   -0.18
#  29   -0.40   -0.37    0.05    0.44   -0.04    0.00    0.00      -0.32    2.48   -0.25
#  30    0.78   -0.19    0.00   -0.97   -0.01    0.00    0.00      -0.39  -13.35   -0.16
#  31   -0.99   -0.18    0.00    2.08   -0.03    0.00    0.00       0.88   26.92   -0.41
#  32   -0.96   -0.08    0.00    0.84   -0.01    0.00    0.00      -0.22   25.31   -0.43
#  33    0.04   -0.19    0.02   -0.01   -0.01    0.00    0.00      -0.16   -0.10   -0.12
#  34   -0.82   -0.67    0.26    1.43    0.04    0.00    0.00       0.25    8.99    0.27
#  35    0.61   -0.57    0.11   -0.22   -0.05    0.00    0.00      -0.12   -1.31   -0.30
#  36   -1.91   -0.58    0.08    1.10   -0.08    0.00    0.00      -1.38    5.63   -0.41
#  37    9.76   -0.67    0.19   -3.15   -0.03    0.00    0.00       6.10  -17.51   -0.16
#  38   -7.42   -0.25    0.01    3.05   -0.03    0.00    0.00      -4.65   25.52   -0.29
#  39  -23.42   -1.68    1.38    8.78   -0.17    0.00    0.00     -15.12   30.38   -0.59
#  40    1.51   -0.06    0.00    0.15   -0.02    0.00    0.00       1.59    2.82   -0.28
#  41    0.59   -0.03    0.00    0.06   -0.01    0.00    0.00       0.60    1.65   -0.28
#  42    0.26   -0.09    0.01    0.06   -0.03    0.00    0.00       0.21    0.56   -0.28
#  43    0.61   -0.12    0.02    0.17   -0.03    0.00    0.00       0.64    1.50   -0.28
#  44    0.25   -0.14    0.02    0.02   -0.03    0.00    0.00       0.11    0.18   -0.28
#  45    0.38   -0.17    0.02    0.00   -0.05    0.00    0.00       0.18   -0.01   -0.28
#  46    1.53   -0.25    0.06   -0.07   -0.06    0.00    0.00       1.21   -0.36   -0.28
#  47    1.19   -0.81    0.75   -0.05   -0.11    0.00    0.00       0.96   -0.13   -0.28
#  48   10.51   -0.01    0.00   -1.02    0.11    0.00    0.00       9.58   -5.53    0.57
#  49    1.36   -0.39    0.14   -0.36   -0.07    0.00    0.00       0.68   -1.23   -0.25
#  50    2.60   -1.25    1.82   -0.53   -0.15    0.00    0.00       2.50   -1.00   -0.28
#  51    1.31   -0.84    0.64   -0.58   -0.16    0.00    0.00       0.37   -1.01   -0.28
#  52    2.43   -1.18    1.46   -0.69   -0.17    0.00    0.00       1.85   -1.12   -0.28
#  53    2.03   -0.61    0.14   -0.76   -0.19    0.00    0.00       0.62   -1.13   -0.28
#  54    0.93   -1.07    0.91   -1.07   -0.17    0.00    0.00      -0.47   -1.77   -0.28
#  55    1.52   -0.64    0.64   -0.61   -0.10    0.00    0.00       0.81   -1.58   -0.27
#  56    3.49   -0.19    0.02   -0.11   -0.04    0.00    0.00       3.17   -0.54   -0.22
#  57    1.01   -0.74    0.70   -0.32   -0.07    0.00    0.00       0.59   -0.94   -0.20
#  58    0.46   -0.15    0.01   -0.28   -0.04    0.00    0.00      -0.01   -1.71   -0.27
#  59   -0.05   -0.85    0.55   -0.98   -0.11    0.00    0.00      -1.43   -2.44   -0.28
#  60   -0.67   -0.43    0.21   -0.63   -0.07    0.00    0.00      -1.60   -2.40   -0.28
#  61    0.10   -0.03    0.00   -0.05   -0.01    0.00    0.00       0.02   -2.03   -0.28
#  62    0.34   -0.46    0.65   -0.38   -0.06    0.00    0.00       0.08   -1.82   -0.28
#  63    0.13   -0.18    0.03   -0.09   -0.04    0.00    0.00      -0.15   -0.56   -0.28
#  64    0.14   -0.13    0.02   -0.23   -0.03    0.00    0.00      -0.23   -1.81   -0.27
#  65    0.13   -0.16    0.02   -0.39   -0.05    0.00    0.00      -0.45   -2.39   -0.28
#  66    0.15   -0.06    0.01   -0.09   -0.02    0.00    0.00      -0.02   -1.16   -0.28
#  67    0.19   -0.02    0.00   -0.06   -0.01    0.00    0.00       0.10   -2.94   -0.28

@<TRIPOS>MOLECULE
       AVX38748_0       100
   67    70     0     0     0



@<TRIPOS>ATOM
      1 N1          7.8156   -23.7337   -25.4093 N.4        1          -0.6384
      2 H1          8.4635   -24.4867   -25.5864 H          1           0.4319
      3 H2          8.2469   -22.8545   -25.6525 H          1           0.4353
      4 H3          6.9851   -23.8664   -25.9668 H          1           0.4399
      5 C1          7.4533   -23.7240   -23.9857 C.3        1          -0.0079
      6 C2          6.7993   -25.0570   -23.6169 C.3        1          -0.1558
      7 C3          6.4220   -25.0470   -22.1342 C.3        1          -0.0978
      8 C4          7.6812   -24.8457   -21.2887 C.3        1          -0.1462
      9 C5          8.6490   -25.9702   -21.5532 C.2        1           0.5196
     10 O1          8.3236   -27.1163   -21.3260 O.2        1          -0.5495
     11 N2          9.8759   -25.7024   -22.0423 N.am       1          -0.7065
     12 C6         10.8166   -26.7956   -22.2995 C.3        1           0.1476
     13 C7         11.7392   -27.0231   -21.0832 C.3        1          -0.0870
     14 C8         13.0794   -27.4116   -21.6699 C.ar       1          -0.1072
     15 C9         14.1726   -28.0259   -21.0817 C.ar       1          -0.1131
     16 C10        15.3070   -28.2860   -21.8250 C.ar       1          -0.1297
     17 C11        15.3527   -27.9324   -23.1607 C.ar       1          -0.1232
     18 C12        14.2637   -27.3198   -23.7492 C.ar       1          -0.0885
     19 C13        13.1252   -27.0581   -23.0054 C.ar       1          -0.0608
     20 C14        11.8187   -26.4078   -23.4075 C.3        1          -0.0350
     21 C15        11.3506   -26.9489   -24.7599 C.3        1          -0.0618
     22 C16        12.0650   -26.2184   -25.8676 C.ar       1          -0.0461
     23 C17        12.8477   -26.9161   -26.7604 C.ar       1          -0.1337
     24 C18        13.5069   -26.2521   -27.7820 C.ar       1          -0.1210
     25 C19        13.3861   -24.8786   -27.9179 C.ar       1           0.0231
     26 O2         14.0373   -24.2421   -28.9298 O.3        1          -0.3059
     27 C20        14.1988   -22.8261   -28.7996 C.3        1           0.0551
     28 C21        15.2293   -22.5185   -27.7114 C.3        1          -0.0854
     29 C22        15.7653   -21.0983   -27.9033 C.3        1          -0.1738
     30 C23        16.4161   -20.9859   -29.2578 C.2        1           0.4896
     31 O3         17.3640   -21.6991   -29.5399 O.co2      1          -0.6933
     32 O4         15.9949   -20.1817   -30.0717 O.co2      1          -0.7153
     33 C24        12.8363   -22.2430   -28.4061 C.3        1           0.0169
     34 O5         12.4754   -22.8131   -27.1439 O.3        1          -0.2600
     35 C25        12.6007   -24.1593   -27.0245 C.ar       1           0.0828
     36 C26        11.9288   -24.8314   -25.9932 C.ar       1          -0.1357
     37 C27        11.0891   -24.0814   -25.0453 C.2        1           0.5222
     38 O6          9.9015   -23.9094   -25.2836 O.co2      1          -0.6804
     39 O7         11.5787   -23.6302   -24.0189 O.co2      1          -0.6662
     40 H4          8.3503   -23.5805   -23.3834 H          1           0.1315
     41 H5          6.7533   -22.9106   -23.7944 H          1           0.1363
     42 H6          5.9020   -25.2005   -24.2191 H          1           0.0936
     43 H7          7.4992   -25.8704   -23.8082 H          1           0.0859
     44 H8          5.7220   -24.2337   -21.9428 H          1           0.0780
     45 H9          5.9560   -25.9968   -21.8714 H          1           0.0841
     46 H10         8.1471   -23.8960   -21.5515 H          1           0.0995
     47 H11         7.4123   -24.8386   -20.2325 H          1           0.0921
     48 H12        10.1362   -24.7858   -22.2239 H          1           0.4035
     49 H13        10.2836   -27.7096   -22.5617 H          1           0.1014
     50 H14        11.8324   -26.1056   -20.5023 H          1           0.0773
     51 H15        11.3514   -27.8288   -20.4598 H          1           0.0726
     52 H16        14.1377   -28.3020   -20.0382 H          1           0.1121
     53 H17        16.1578   -28.7648   -21.3632 H          1           0.1168
     54 H18        16.2392   -28.1347   -23.7434 H          1           0.1198
     55 H19        14.3002   -27.0438   -24.7926 H          1           0.1312
     56 H20        11.9333   -25.3247   -23.4517 H          1           0.1088
     57 H21        11.5753   -28.0136   -24.8227 H          1           0.1174
     58 H22        10.2757   -26.7979   -24.8594 H          1           0.0457
     59 H23        12.9486   -27.9869   -26.6633 H          1           0.1144
     60 H24        14.1190   -26.8084   -28.4764 H          1           0.1176
     61 H25        14.5255   -22.4019   -29.7490 H          1           0.0697
     62 H26        14.7585   -22.5999   -26.7316 H          1           0.0824
     63 H27        16.0525   -23.2298   -27.7790 H          1           0.0737
     64 H28        14.9421   -20.3872   -27.8356 H          1           0.0620
     65 H29        16.4994   -20.8793   -27.1280 H          1           0.0486
     66 H30        12.9096   -21.1592   -28.3154 H          1           0.0700
     67 H31        12.0908   -22.5045   -29.1571 H          1           0.1150
@<TRIPOS>BOND
     1    1    2 1
     2    1    3 1
     3    1    4 1
     4    1    5 1
     5    5    6 1
     6    5   40 1
     7    5   41 1
     8    6    7 1
     9    6   42 1
    10    6   43 1
    11    7    8 1
    12    7   44 1
    13    7   45 1
    14    8    9 1
    15    8   46 1
    16    8   47 1
    17    9   10 2
    18    9   11 am
    19   11   12 1
    20   11   48 1
    21   12   20 1
    22   12   13 1
    23   12   49 1
    24   13   14 1
    25   13   50 1
    26   13   51 1
    27   14   19 ar
    28   14   15 ar
    29   15   16 ar
    30   15   52 1
    31   16   17 ar
    32   16   53 1
    33   17   18 ar
    34   17   54 1
    35   18   19 ar
    36   18   55 1
    37   19   20 1
    38   20   21 1
    39   20   56 1
    40   21   22 1
    41   21   57 1
    42   21   58 1
    43   22   36 ar
    44   22   23 ar
    45   23   24 ar
    46   23   59 1
    47   24   25 ar
    48   24   60 1
    49   25   35 ar
    50   25   26 1
    51   26   27 1
    52   27   28 1
    53   27   33 1
    54   27   61 1
    55   28   29 1
    56   28   62 1
    57   28   63 1
    58   29   30 1
    59   29   64 1
    60   29   65 1
    61   30   31 1
    62   30   32 2
    63   33   34 1
    64   33   66 1
    65   33   67 1
    66   34   35 1
    67   35   36 ar
    68   36   37 1
    69   37   38 1
    70   37   39 2
