AVX38783_1, 3
##########                 Name:           AVX38783_0
##########          Protonation:                   61
##########               SMILES:   =CC[NH+](Cc1ccccc1C(=O)NCc2ccco2)Cc3ccc4c(c3C(=O)[O-])OC[C@H](O4)CCC(=O)[O-]
##########            Long Name:   ]methyl]-2-(3-oxido-3-oxo-propyl)-2,3-dihydro-1,4-benzodioxine-5-carboxylate
##########          FlexRecCode: 1
##########               Number:                  745
##########   Ligand Source File: /raid1/people/rgc/Examples/sampl4/screening/ligands/build_1//sampl4-hivint-00000
##########           GlobalRank: 43
##########                 Rank:                    1
##########               Setnum:                  135
##########             Matchnum:                19266
##########                Cloud:                    1
##########        Electrostatic:           -49.978043
##########        Van der Waals:           -14.813464
##########  Ligand Polar Desolv:            26.978058
########## Ligand Apolar Desolv:            -2.484433
##########      Internal Energy:             0.000000
##########      Receptor Energy: 0.0
########## Receptor Desolvation:             0.000000
########## Receptor Hydrophobic:             0.000000
##########         Total Energy: -40.3
##########        Ligand Charge:            -1.000000
##########            Arbitrary:    +999.9990
##########     heavy atom count:   39
##########           pose count:    1
##########        Ligand Energy:             0.000000
# num electro vdwattr vdwrepu polsolv apolsol rdesolv rhydroe totalscore fullpol fullapo
#   1  -21.44   -1.17    0.59    7.72   -0.11    0.00    0.00     -14.41   29.34   -0.41
#   2   18.33   -1.59    1.12   -4.77   -0.05    0.00    0.00      13.04  -16.33   -0.16
#   3  -41.44   -4.76   10.77   11.87   -0.16    0.00    0.00     -23.72   31.15   -0.43
#   4   -3.73   -0.53    0.03    1.11   -0.07    0.00    0.00      -3.19    3.79   -0.25
#   5   -1.35   -0.55    0.04    0.45   -0.05    0.00    0.00      -1.46    1.56   -0.18
#   6    1.17   -0.85    0.10   -0.82   -0.05    0.00    0.00      -0.45   -2.00   -0.12
#   7    0.27   -1.29    0.41   -0.25   -0.05    0.00    0.00      -0.91   -0.56   -0.12
#   8   -3.06   -0.87    0.08    3.12    0.10    0.00    0.00      -0.64    8.56    0.27
#   9    1.27   -1.03    0.17   -0.19   -0.09    0.00    0.00       0.14   -0.63   -0.30
#  10   -0.73   -0.93    0.12    0.76   -0.08    0.00    0.00      -0.86    2.74   -0.30
#  11    2.03   -0.98    0.19   -3.61   -0.04    0.00    0.00      -2.41  -12.83   -0.15
#  12   -1.98   -0.76    0.18    5.79   -0.13    0.00    0.00       3.09   25.65   -0.59
#  13   -1.60   -2.32    1.74    4.91   -0.09    0.00    0.00       2.63   14.14   -0.25
#  14   -0.75   -0.97    0.13    0.12   -0.06    0.00    0.00      -1.53    0.45   -0.23
#  15    0.09   -0.56    0.10   -0.03   -0.06    0.00    0.00      -0.45   -0.12   -0.28
#  16   -0.36   -0.19    0.00    0.00    0.01    0.00    0.00      -0.54   -0.04    0.07
#  17    0.81    0.00    0.00   -0.09    0.01    0.00    0.00       0.73   -2.67    0.29
#  18    0.03   -0.10    0.00    0.01   -0.02    0.00    0.00      -0.09    0.15   -0.37
#  19   -0.12   -0.06    0.00    0.02   -0.01    0.00    0.00      -0.18    0.55   -0.35
#  20   -0.09   -0.04    0.00    0.01   -0.01    0.00    0.00      -0.13    0.74   -0.34
#  21    0.01   -0.11    0.00    0.01   -0.02    0.00    0.00      -0.10    0.09   -0.28
#  22   -0.03   -0.21    0.01   -0.02   -0.03    0.00    0.00      -0.29   -0.22   -0.31
#  23   -0.03   -0.49    0.06   -0.10   -0.06    0.00    0.00      -0.62   -0.67   -0.39
#  24   -0.02   -0.59    0.16   -0.08   -0.08    0.00    0.00      -0.61   -0.51   -0.47
#  25   -0.03   -0.43    0.02   -0.04   -0.08    0.00    0.00      -0.56   -0.26   -0.47
#  26   -0.04   -0.47    0.04    0.03   -0.07    0.00    0.00      -0.51    0.16   -0.44
#  27   -0.05   -0.24    0.01    0.05   -0.04    0.00    0.00      -0.27    0.48   -0.40
#  28    0.27   -0.21    0.01   -0.46   -0.06    0.00    0.00      -0.45   -4.89   -0.63
#  29   -0.23   -0.09    0.00    0.33    0.01    0.00    0.00       0.02    6.84    0.21
#  30   -0.40   -0.40    0.06    1.06    0.32    0.00    0.00       0.64    7.72    2.32
#  31    0.10   -0.16    0.01   -0.37   -0.05    0.00    0.00      -0.46   -3.79   -0.47
#  32   -0.02   -0.48    0.08    0.15   -0.05    0.00    0.00      -0.32    0.99   -0.31
#  33   -0.09   -0.42    0.07    0.34   -0.07    0.00    0.00      -0.16    2.58   -0.51
#  34   -0.08   -0.50    0.06    0.37   -0.08    0.00    0.00      -0.24    2.26   -0.51
#  35   -0.01   -0.94    0.26    0.04   -0.05    0.00    0.00      -0.71    0.19   -0.27
#  36   -0.06   -1.15    0.65    0.54    0.05    0.00    0.00       0.02    2.71    0.25
#  37   -1.26   -1.34    0.29    0.06   -0.12    0.00    0.00      -2.37    0.19   -0.39
#  38   -2.61   -1.93    1.07    0.52   -0.16    0.00    0.00      -3.11    1.49   -0.46
#  39    1.42   -1.63    1.05    0.05   -0.09    0.00    0.00       0.80    0.16   -0.30
#  40   -8.93   -1.47    0.42    3.07    0.25    0.00    0.00      -6.66    7.61    0.62
#  41    0.74   -0.11    0.00   -0.27   -0.03    0.00    0.00       0.33   -2.44   -0.28
#  42    1.32   -0.22    0.02   -0.55   -0.07    0.00    0.00       0.50   -2.25   -0.27
#  43    1.04   -0.09    0.00   -0.10   -0.02    0.00    0.00       0.83   -1.27   -0.28
#  44    0.88   -0.29    0.06   -0.55   -0.07    0.00    0.00       0.03   -2.17   -0.28
#  45    1.95   -0.35    0.06   -0.68   -0.11    0.00    0.00       0.87   -1.78   -0.28
#  46    0.73   -0.75    1.04   -0.58   -0.11    0.00    0.00       0.33   -1.49   -0.28
#  47    2.09   -0.76    0.88   -1.37   -0.13    0.00    0.00       0.71   -2.97   -0.28
#  48    0.04   -0.32    0.22    0.21   -0.05    0.00    0.00       0.11    1.23   -0.27
#  49    0.17   -0.22    0.03   -0.11   -0.03    0.00    0.00      -0.15   -0.59   -0.15
#  50    0.10   -0.03    0.00    0.03   -0.01    0.00    0.00       0.09    0.99   -0.20
#  51    0.22   -0.04    0.00    0.08   -0.01    0.00    0.00       0.25    2.30   -0.28
#  52    0.10   -0.01    0.00   -0.01    0.00    0.00    0.00       0.07   -0.53   -0.22
#  53    0.06   -0.01    0.00    0.00    0.00    0.00    0.00       0.05   -0.11   -0.27
#  54    0.06    0.00    0.00    0.00    0.00    0.00    0.00       0.05   -0.49   -0.28
#  55    0.08   -0.04    0.00    0.00   -0.01    0.00    0.00       0.04    0.07   -0.14
#  56    0.06   -0.01    0.00    0.04    0.00    0.00    0.00       0.08    2.41   -0.27
#  57    0.04   -0.19    0.04    0.41   -0.04    0.00    0.00       0.26    2.59   -0.28
#  58    0.02   -0.31    0.39    0.26   -0.05    0.00    0.00       0.31    1.53   -0.28
#  59    0.03   -0.10    0.00    0.05   -0.03    0.00    0.00      -0.04    0.59   -0.28
#  60    0.07   -0.16    0.02   -0.04   -0.04    0.00    0.00      -0.15   -0.23   -0.22
#  61    0.25   -0.01    0.00   -0.47    0.06    0.00    0.00      -0.17   -3.32    0.43
#  62    0.05   -0.04    0.00   -0.04   -0.01    0.00    0.00      -0.03   -0.93   -0.28
#  63    0.05   -0.02    0.00   -0.01    0.00    0.00    0.00       0.01   -0.81   -0.28
#  64    0.09   -0.05    0.00   -0.11   -0.02    0.00    0.00      -0.08   -2.00   -0.28
#  65    0.05   -0.08    0.00   -0.09   -0.02    0.00    0.00      -0.13   -1.31   -0.28
#  66    0.05   -0.23    0.07   -0.20   -0.05    0.00    0.00      -0.36   -1.16   -0.28
#  67    0.69   -0.23    0.03    0.03   -0.06    0.00    0.00       0.46    0.14   -0.28
#  68    3.74   -0.41    0.11   -0.63   -0.10    0.00    0.00       2.71   -1.74   -0.28

@<TRIPOS>MOLECULE
       AVX38783_0        61
   68    71     0     0     0



@<TRIPOS>ATOM
      1 O1         11.3340   -23.7201   -24.0822 O.co2      1          -0.6992
      2 C1         12.1318   -24.6170   -23.8686 C.2        1           0.4904
      3 O2         13.1711   -24.3801   -23.2769 O.co2      1          -0.7072
      4 C2         11.8306   -26.0193   -24.3308 C.3        1          -0.1787
      5 C3         10.5399   -26.5077   -23.6702 C.3        1          -0.0836
      6 C4         10.7097   -26.4972   -22.1497 C.3        1           0.0528
      7 C5          9.6370   -27.3794   -21.4998 C.3        1           0.0184
      8 O3          8.3620   -26.8706   -21.9044 O.3        1          -0.2617
      9 C6          8.1759   -25.5307   -21.7913 C.ar       1           0.0906
     10 C7          6.8756   -25.0060   -21.8013 C.ar       1          -0.0930
     11 C8          5.7165   -25.9034   -21.9320 C.2        1           0.5281
     12 O4          5.2808   -26.1824   -23.0406 O.co2      1          -0.6373
     13 O5          5.1887   -26.3705   -20.9320 O.co2      1          -0.7097
     14 C9          6.6862   -23.6245   -21.6857 C.ar       1          -0.1138
     15 C10         5.2926   -23.0510   -21.6947 C.3        1           0.0607
     16 N1          4.8994   -22.7413   -23.0758 N.4        1          -0.3539
     17 H1          5.2240   -23.4730   -23.6900 H          1           0.4369
     18 C11         5.4971   -21.4617   -23.4798 C.3        1           0.0284
     19 C12         5.0937   -21.1438   -24.8966 C.2        1          -0.1683
     20 C13         4.4240   -20.0487   -25.1570 C.2        1          -0.1474
     21 C14         3.4358   -22.6460   -23.1585 C.3        1           0.0226
     22 C15         2.8455   -24.0307   -23.2316 C.ar       1          -0.0822
     23 C16         2.5000   -24.6971   -22.0738 C.ar       1          -0.1053
     24 C17         1.9581   -25.9682   -22.1393 C.ar       1          -0.0927
     25 C18         1.7588   -26.5799   -23.3645 C.ar       1          -0.1035
     26 C19         2.0996   -25.9245   -24.5295 C.ar       1          -0.0818
     27 C20         2.6419   -24.6395   -24.4708 C.ar       1          -0.1087
     28 C21         3.0041   -23.9289   -25.7156 C.2        1           0.5436
     29 O6          2.4796   -22.8656   -25.9830 O.2        1          -0.5090
     30 N2          3.9159   -24.4602   -26.5540 N.am       1          -0.7107
     31 C22         4.2747   -23.7561   -27.7876 C.3        1           0.2024
     32 C23         4.6673   -24.7586   -28.8420 C.2        1          -0.0412
     33 C24         5.9088   -25.2306   -29.0552 C.2        1          -0.1767
     34 C25         5.8213   -26.1418   -30.1328 C.2        1          -0.2183
     35 C26         4.5315   -26.1720   -30.5137 C.2        1          -0.0268
     36 O7          3.8362   -25.3367   -29.7246 O.3        1          -0.1704
     37 C27         7.7742   -22.7891   -21.5634 C.ar       1          -0.1136
     38 C28         9.0584   -23.3083   -21.5534 C.ar       1          -0.1211
     39 C29         9.2634   -24.6738   -21.6655 C.ar       1           0.0632
     40 O8         10.5317   -25.1679   -21.6499 O.3        1          -0.2987
     41 H2         11.7097   -26.0268   -25.4140 H          1           0.0541
     42 H3         12.6530   -26.6781   -24.0525 H          1           0.0633
     43 H4          9.7173   -25.8489   -23.9485 H          1           0.0738
     44 H5         10.3220   -27.5221   -24.0043 H          1           0.0845
     45 H6         11.7024   -26.8621   -21.8856 H          1           0.0767
     46 H7          9.7492   -28.4092   -21.8390 H          1           0.0738
     47 H8          9.7268   -27.3326   -20.4145 H          1           0.1198
     48 H9          4.5979   -23.7778   -21.2735 H          1           0.1027
     49 H10         5.2710   -22.1394   -21.0977 H          1           0.1589
     50 H11         5.1463   -20.6713   -22.8162 H          1           0.1120
     51 H12         6.5831   -21.5323   -23.4184 H          1           0.1199
     52 H13         5.3569   -21.8192   -25.6973 H          1           0.1407
     53 H14         4.1607   -19.3734   -24.3562 H          1           0.0938
     54 H15         4.1349   -19.8209   -26.1723 H          1           0.1120
     55 H16         3.0544   -22.1347   -22.2747 H          1           0.1637
     56 H17         3.1581   -22.0850   -24.0509 H          1           0.1193
     57 H18         2.6533   -24.2253   -21.1144 H          1           0.1380
     58 H19         1.6897   -26.4856   -21.2301 H          1           0.1364
     59 H20         1.3359   -27.5727   -23.4087 H          1           0.1369
     60 H21         1.9436   -26.4030   -25.4850 H          1           0.1336
     61 H22         4.3344   -25.3089   -26.3405 H          1           0.4011
     62 H23         3.4201   -23.1770   -28.1371 H          1           0.1140
     63 H24         5.1124   -23.0865   -27.5931 H          1           0.0894
     64 H25         6.8014   -24.9644   -28.5084 H          1           0.1525
     65 H26         6.6340   -26.7051   -30.5670 H          1           0.1508
     66 H27         4.1235   -26.7696   -31.3153 H          1           0.2049
     67 H28         7.6253   -21.7230   -21.4751 H          1           0.1206
     68 H29         9.9050   -22.6445   -21.4573 H          1           0.1293
@<TRIPOS>BOND
     1    1    2 1
     2    2    3 2
     3    2    4 1
     4    4    5 1
     5    4   41 1
     6    4   42 1
     7    5    6 1
     8    5   43 1
     9    5   44 1
    10    6   40 1
    11    6    7 1
    12    6   45 1
    13    7    8 1
    14    7   46 1
    15    7   47 1
    16    8    9 1
    17    9   39 ar
    18    9   10 ar
    19   10   11 1
    20   10   14 ar
    21   11   12 1
    22   11   13 2
    23   14   15 1
    24   14   37 ar
    25   15   16 1
    26   15   48 1
    27   15   49 1
    28   16   17 1
    29   16   18 1
    30   16   21 1
    31   18   19 1
    32   18   50 1
    33   18   51 1
    34   19   20 2
    35   19   52 1
    36   20   53 1
    37   20   54 1
    38   21   22 1
    39   21   55 1
    40   21   56 1
    41   22   27 ar
    42   22   23 ar
    43   23   24 ar
    44   23   57 1
    45   24   25 ar
    46   24   58 1
    47   25   26 ar
    48   25   59 1
    49   26   27 ar
    50   26   60 1
    51   27   28 1
    52   28   29 2
    53   28   30 am
    54   30   31 1
    55   30   61 1
    56   31   32 1
    57   31   62 1
    58   31   63 1
    59   32   36 1
    60   32   33 2
    61   33   34 1
    62   33   64 1
    63   34   35 2
    64   34   65 1
    65   35   36 1
    66   35   66 1
    67   37   38 ar
    68   37   67 1
    69   38   39 ar
    70   38   68 1
    71   39   40 1
