AVX38749_0, 3
##########                 Name:           AVX38749_0
##########          Protonation:                  100
##########               SMILES:   c1)C[C@H]([C@@H]2Cc3ccc4c(c3C(=O)[O-])OC[C@H](O4)CCC(=O)[O-])NC(=O)CCC[NH3+]
##########            Long Name:   ]methyl]-2-(3-oxido-3-oxo-propyl)-2,3-dihydro-1,4-benzodioxine-5-carboxylate
##########          FlexRecCode: 1
##########               Number:                  530
##########   Ligand Source File: /raid1/people/rgc/Examples/sampl4/screening/ligands/build_1//sampl4-hivint-00000
##########           GlobalRank: 88
##########                 Rank:                    1
##########               Setnum:                   29
##########             Matchnum:                 6204
##########                Cloud:                    1
##########        Electrostatic:           -50.688725
##########        Van der Waals:            -5.275438
##########  Ligand Polar Desolv:            21.454025
########## Ligand Apolar Desolv:            -1.996824
##########      Internal Energy:             0.000000
##########      Receptor Energy: 0.0
########## Receptor Desolvation:             0.000000
########## Receptor Hydrophobic:             0.000000
##########         Total Energy: -36.51
##########        Ligand Charge:            -1.000000
##########            Arbitrary:    +999.9990
##########     heavy atom count:   35
##########           pose count:    1
##########        Ligand Energy:             0.000000
# num electro vdwattr vdwrepu polsolv apolsol rdesolv rhydroe totalscore fullpol fullapo
#   1   -0.33   -0.09    0.00   -0.71    0.05    0.00    0.00      -1.09  -13.42    0.86
#   2    0.25    0.00    0.00    0.16    0.01    0.00    0.00       0.42    9.84    0.58
#   3    0.24    0.00    0.00    0.47    0.02    0.00    0.00       0.73   11.37    0.60
#   4    0.21    0.00    0.00    0.18    0.01    0.00    0.00       0.39   11.25    0.58
#   5   -0.01   -0.08    0.00    0.02   -0.03    0.00    0.00      -0.09    0.36   -0.49
#   6   -0.06   -0.03    0.00   -0.02    0.00    0.00    0.00      -0.10   -1.10   -0.20
#   7   -0.05   -0.02    0.00    0.00    0.00    0.00    0.00      -0.08   -0.19   -0.24
#   8    0.23   -0.04    0.00   -0.05   -0.01    0.00    0.00       0.13   -2.80   -0.66
#   9   -0.21   -0.04    0.00    0.09    0.01    0.00    0.00      -0.16    4.36    0.37
#  10   -0.39   -0.04    0.00    0.15    0.04    0.00    0.00      -0.24    7.11    1.96
#  11    0.10   -0.07    0.00   -0.09   -0.01    0.00    0.00      -0.07   -2.12   -0.23
#  12   -0.06   -0.10    0.00    0.04   -0.02    0.00    0.00      -0.14    0.59   -0.27
#  13   -0.11   -0.21    0.00    0.10   -0.03    0.00    0.00      -0.24    1.29   -0.43
#  14   -0.12   -0.29    0.01    0.10   -0.05    0.00    0.00      -0.35    0.91   -0.47
#  15   -0.16   -0.50    0.04    0.17   -0.08    0.00    0.00      -0.53    1.01   -0.47
#  16   -0.29   -0.53    0.04    0.36   -0.09    0.00    0.00      -0.52    1.80   -0.47
#  17   -0.13   -0.31    0.01    0.33   -0.05    0.00    0.00      -0.15    2.80   -0.45
#  18   -0.08   -0.21    0.00    0.18   -0.03    0.00    0.00      -0.14    2.23   -0.39
#  19   -0.04   -0.11    0.00    0.02   -0.01    0.00    0.00      -0.13    0.37   -0.13
#  20   -0.11   -0.34    0.02    0.22   -0.03    0.00    0.00      -0.25    1.19   -0.17
#  21   -0.30   -0.57    0.03    0.08   -0.06    0.00    0.00      -0.82    0.38   -0.31
#  22   -1.79   -1.58    0.50    0.42   -0.14    0.00    0.00      -2.59    1.38   -0.45
#  23   -2.63   -1.71    1.10    0.22   -0.15    0.00    0.00      -3.17    0.68   -0.46
#  24    0.39   -0.63    0.04   -0.11   -0.07    0.00    0.00      -0.37   -0.48   -0.30
#  25   -6.13   -0.59    0.02    1.54    0.18    0.00    0.00      -4.98    5.29    0.62
#  26    0.75   -0.47    0.03   -0.42   -0.03    0.00    0.00      -0.14   -1.62   -0.12
#  27   -1.15   -0.28    0.01    0.23   -0.03    0.00    0.00      -1.23    1.34   -0.18
#  28   -3.75   -0.51    0.09    0.59   -0.06    0.00    0.00      -3.64    2.37   -0.24
#  29   20.70   -2.16    2.36   -4.26   -0.05    0.00    0.00      16.59  -13.28   -0.16
#  30  -32.19   -2.77    4.11    9.76   -0.15    0.00    0.00     -21.24   27.08   -0.41
#  31  -34.52   -3.83    7.63   10.22   -0.17    0.00    0.00     -20.68   25.81   -0.43
#  32    0.12   -0.82    0.27   -0.03   -0.03    0.00    0.00      -0.49   -0.10   -0.12
#  33   -1.73   -0.58    0.10    1.63    0.05    0.00    0.00      -0.52    8.74    0.27
#  34    0.79   -0.41    0.02   -0.19   -0.05    0.00    0.00       0.16   -1.20   -0.30
#  35   -0.81   -0.33    0.01    0.74   -0.06    0.00    0.00      -0.45    5.39   -0.41
#  36    1.21   -0.27    0.01   -1.87   -0.02    0.00    0.00      -0.94  -17.07   -0.16
#  37   -1.01   -0.34    0.02    3.58   -0.04    0.00    0.00       2.21   25.17   -0.29
#  38   -0.81   -0.14    0.00    2.19   -0.04    0.00    0.00       1.20   30.03   -0.59
#  39    0.07   -0.03    0.00    0.03   -0.01    0.00    0.00       0.07    1.51   -0.28
#  40    0.06   -0.05    0.01    0.15   -0.01    0.00    0.00       0.15    2.91   -0.28
#  41    0.05    0.00    0.00    0.01    0.00    0.00    0.00       0.05    1.04   -0.28
#  42    0.04   -0.01    0.00    0.00    0.00    0.00    0.00       0.03    0.46   -0.28
#  43    0.04    0.00    0.00    0.00    0.00    0.00    0.00       0.03   -0.04   -0.28
#  44    0.03   -0.01    0.00    0.00    0.00    0.00    0.00       0.03    0.54   -0.28
#  45    0.24    0.00    0.00   -0.05    0.01    0.00    0.00       0.20   -4.61    0.57
#  46    0.06   -0.02    0.00   -0.03   -0.01    0.00    0.00       0.00   -1.09   -0.25
#  47    0.05   -0.01    0.00   -0.01    0.00    0.00    0.00       0.01   -0.85   -0.28
#  48    0.05   -0.06    0.00   -0.05   -0.02    0.00    0.00      -0.07   -0.84   -0.28
#  49    0.10   -0.04    0.00   -0.04   -0.01    0.00    0.00       0.01   -0.97   -0.28
#  50    0.18   -0.12    0.01   -0.13   -0.04    0.00    0.00      -0.10   -1.05   -0.28
#  51    0.70   -0.15    0.01   -0.34   -0.06    0.00    0.00       0.16   -1.71   -0.28
#  52    0.60   -0.05    0.00   -0.06   -0.01    0.00    0.00       0.48   -1.53   -0.27
#  53    0.16   -0.02    0.00   -0.01   -0.01    0.00    0.00       0.12   -0.51   -0.22
#  54    0.17   -0.19    0.02   -0.14   -0.04    0.00    0.00      -0.18   -0.80   -0.20
#  55    0.03   -0.11    0.01   -0.17   -0.03    0.00    0.00      -0.27   -1.60   -0.27
#  56    1.48   -0.70    0.46   -0.75   -0.10    0.00    0.00       0.39   -2.09   -0.28
#  57    3.71   -0.86    2.11   -0.70   -0.10    0.00    0.00       4.16   -1.99   -0.28
#  58    0.93   -0.25    0.04   -0.39   -0.06    0.00    0.00       0.27   -1.95   -0.28
#  59    0.67   -0.08    0.00   -0.11   -0.02    0.00    0.00       0.46   -1.70   -0.28
#  60    0.98   -0.06    0.00   -0.03   -0.02    0.00    0.00       0.88   -0.52   -0.28
#  61    0.99   -0.16    0.01   -0.36   -0.05    0.00    0.00       0.43   -1.87   -0.27
#  62    0.88   -0.16    0.05   -0.33   -0.04    0.00    0.00       0.41   -2.33   -0.28
#  63    0.29   -0.38    0.13   -0.31   -0.08    0.00    0.00      -0.35   -1.07   -0.28
#  64    0.77   -0.36    0.23   -0.76   -0.08    0.00    0.00      -0.19   -2.81   -0.28

@<TRIPOS>MOLECULE
       AVX38749_0       100
   64    67     0     0     0



@<TRIPOS>ATOM
      1 N1          3.6680   -23.0249   -26.0473 N.4        1          -0.6357
      2 H1          4.5496   -22.5676   -25.8698 H          1           0.4381
      3 H2          3.7803   -24.0224   -25.9459 H          1           0.4374
      4 H3          2.9792   -22.6952   -25.3878 H          1           0.4315
      5 C1          3.2236   -22.7185   -27.4137 C.3        1          -0.0125
      6 C2          3.0534   -21.2058   -27.5674 C.3        1          -0.1326
      7 C3          2.0092   -20.7057   -26.5674 C.3        1          -0.1451
      8 C4          2.4648   -21.0199   -25.1658 C.2        1           0.5207
      9 O1          1.7870   -21.7287   -24.4523 O.2        1          -0.5500
     10 N2          3.6256   -20.5133   -24.7051 N.am       1          -0.7027
     11 C5          4.0685   -20.8186   -23.3424 C.3        1           0.1472
     12 C6          4.3224   -19.5358   -22.5432 C.3        1          -0.0863
     13 C7          5.7392   -19.1474   -22.8845 C.ar       1          -0.1082
     14 C8          6.3957   -17.9314   -22.7983 C.ar       1          -0.1127
     15 C9          7.7196   -17.8295   -23.1792 C.ar       1          -0.1291
     16 C10         8.3910   -18.9438   -23.6471 C.ar       1          -0.1224
     17 C11         7.7371   -20.1576   -23.7331 C.ar       1          -0.0882
     18 C12         6.4102   -20.2608   -23.3521 C.ar       1          -0.0613
     19 C13         5.4696   -21.4399   -23.3428 C.3        1          -0.0348
     20 C14         5.6806   -22.2804   -22.0820 C.3        1          -0.0623
     21 C15         6.8477   -23.2111   -22.2882 C.ar       1          -0.0466
     22 C16         7.9427   -23.1380   -21.4562 C.ar       1          -0.1348
     23 C17         9.0192   -23.9905   -21.6386 C.ar       1          -0.1230
     24 C18         9.0068   -24.9271   -22.6596 C.ar       1           0.0229
     25 O2         10.0710   -25.7600   -22.8224 O.3        1          -0.3061
     26 C19        10.1833   -26.4191   -24.0878 C.3        1           0.0553
     27 C20        10.5877   -25.4106   -25.1649 C.3        1          -0.0858
     28 C21        12.0955   -25.1616   -25.0901 C.3        1          -0.1739
     29 C22        12.4474   -24.6134   -23.7312 C.2        1           0.4891
     30 O3         11.9565   -23.5641   -23.3513 O.co2      1          -0.6937
     31 O4         13.2232   -25.2192   -23.0117 O.co2      1          -0.7135
     32 C23         8.8091   -27.0125   -24.4199 C.3        1           0.0167
     33 O5          7.8848   -25.9240   -24.5149 O.3        1          -0.2598
     34 C24         7.9095   -25.0132   -23.5088 C.ar       1           0.0834
     35 C25         6.8171   -24.1541   -23.3216 C.ar       1          -0.1352
     36 C26         5.6470   -24.2404   -24.2101 C.2        1           0.5214
     37 O6          4.7151   -24.9797   -23.9244 O.co2      1          -0.6802
     38 O7          5.6062   -23.5728   -25.2346 O.co2      1          -0.6650
     39 H4          3.9677   -23.0748   -28.1261 H          1           0.1394
     40 H5          2.2712   -23.2127   -27.6053 H          1           0.1330
     41 H6          4.0060   -20.7118   -27.3757 H          1           0.0919
     42 H7          2.7239   -20.9784   -28.5812 H          1           0.0976
     43 H8          1.8880   -19.6280   -26.6771 H          1           0.1076
     44 H9          1.0566   -21.1998   -26.7591 H          1           0.1006
     45 H10         4.1678   -19.9463   -25.2757 H          1           0.4051
     46 H11         3.3524   -21.4642   -22.8341 H          1           0.1024
     47 H12         3.6292   -18.7531   -22.8511 H          1           0.0775
     48 H13         4.2284   -19.7291   -21.4747 H          1           0.0727
     49 H14         5.8716   -17.0607   -22.4329 H          1           0.1123
     50 H15         8.2296   -16.8800   -23.1118 H          1           0.1173
     51 H16         9.4260   -18.8653   -23.9455 H          1           0.1203
     52 H17         8.2619   -21.0277   -24.0991 H          1           0.1316
     53 H18         5.6148   -22.0486   -24.2352 H          1           0.1092
     54 H19         5.8850   -21.6229   -21.2370 H          1           0.1181
     55 H20         4.7821   -22.8636   -21.8796 H          1           0.0460
     56 H21         7.9625   -22.4116   -20.6574 H          1           0.1141
     57 H22         9.8735   -23.9246   -20.9812 H          1           0.1172
     58 H23        10.9273   -27.2134   -24.0266 H          1           0.0701
     59 H24        10.3332   -25.8071   -26.1478 H          1           0.0831
     60 H25        10.0562   -24.4729   -25.0026 H          1           0.0739
     61 H26        12.6270   -26.0994   -25.2525 H          1           0.0612
     62 H27        12.3836   -24.4432   -25.8575 H          1           0.0492
     63 H28         8.8550   -27.5432   -25.3709 H          1           0.0705
     64 H29         8.4987   -27.6937   -23.6277 H          1           0.1159
@<TRIPOS>BOND
     1    1    2 1
     2    1    3 1
     3    1    4 1
     4    1    5 1
     5    5    6 1
     6    5   39 1
     7    5   40 1
     8    6    7 1
     9    6   41 1
    10    6   42 1
    11    7    8 1
    12    7   43 1
    13    7   44 1
    14    8    9 2
    15    8   10 am
    16   10   11 1
    17   10   45 1
    18   11   19 1
    19   11   12 1
    20   11   46 1
    21   12   13 1
    22   12   47 1
    23   12   48 1
    24   13   18 ar
    25   13   14 ar
    26   14   15 ar
    27   14   49 1
    28   15   16 ar
    29   15   50 1
    30   16   17 ar
    31   16   51 1
    32   17   18 ar
    33   17   52 1
    34   18   19 1
    35   19   20 1
    36   19   53 1
    37   20   21 1
    38   20   54 1
    39   20   55 1
    40   21   35 ar
    41   21   22 ar
    42   22   23 ar
    43   22   56 1
    44   23   24 ar
    45   23   57 1
    46   24   34 ar
    47   24   25 1
    48   25   26 1
    49   26   27 1
    50   26   32 1
    51   26   58 1
    52   27   28 1
    53   27   59 1
    54   27   60 1
    55   28   29 1
    56   28   61 1
    57   28   62 1
    58   29   30 1
    59   29   31 2
    60   32   33 1
    61   32   63 1
    62   32   64 1
    63   33   34 1
    64   34   35 ar
    65   35   36 1
    66   36   37 1
    67   36   38 2
