AVX38743_5, 3
##########                 Name:           AVX38743_0
##########          Protonation:                  100
##########               SMILES:   c1ccc\2c(c1)C[C@H](/C2=C\c3ccc4c(c3C(=O)[O-])O[C@@H](CO4)CCC(=O)[O-])O
##########            Long Name:   ]methyl]-3-(3-oxido-3-oxo-propyl)-2,3-dihydro-1,4-benzodioxine-5-carboxylate
##########          FlexRecCode: 1
##########               Number:                  443
##########   Ligand Source File: /raid1/people/rgc/Examples/sampl4/screening/ligands/build_1//sampl4-hivint-00000
##########           GlobalRank: 95
##########                 Rank:                    1
##########               Setnum:                   20
##########             Matchnum:                 5573
##########                Cloud:                    1
##########        Electrostatic:           -51.595791
##########        Van der Waals:           -22.346918
##########  Ligand Polar Desolv:            41.586136
########## Ligand Apolar Desolv:            -3.584951
##########      Internal Energy:             0.000000
##########      Receptor Energy: 0.0
########## Receptor Desolvation:             0.000000
########## Receptor Hydrophobic:             0.000000
##########         Total Energy: -35.94
##########        Ligand Charge:            -2.000000
##########            Arbitrary:    +999.9990
##########     heavy atom count:   29
##########           pose count:    1
##########        Ligand Energy:             0.000000
# num electro vdwattr vdwrepu polsolv apolsol rdesolv rhydroe totalscore fullpol fullapo
#   1   -6.17   -0.67    0.04    3.83    0.46    0.00    0.00      -2.51   14.06    1.68
#   2    3.11   -0.56    0.04   -0.76   -0.04    0.00    0.00       1.79   -2.50   -0.12
#   3   -1.79   -1.04    0.20    0.45   -0.11    0.00    0.00      -2.29    1.14   -0.28
#   4   -2.08   -2.29    0.63    0.70   -0.22    0.00    0.00      -3.27    1.40   -0.44
#   5   -1.52   -3.14    0.98    0.83   -0.30    0.00    0.00      -3.15    1.31   -0.47
#   6   -2.21   -2.96    0.70    0.70   -0.33    0.00    0.00      -4.09    1.00   -0.47
#   7   -2.45   -3.88    1.96    1.68   -0.32    0.00    0.00      -3.01    2.46   -0.47
#   8   -2.69   -3.98    2.39    2.25   -0.27    0.00    0.00      -2.30    3.93   -0.47
#   9   -0.49   -2.57    1.20    1.88   -0.21    0.00    0.00      -0.19    3.84   -0.43
#  10   -4.32   -1.34    0.23    0.79   -0.15    0.00    0.00      -4.80    2.04   -0.40
#  11    0.93   -1.30    0.18    1.73   -0.15    0.00    0.00       1.39    4.41   -0.37
#  12   -0.73   -0.74    0.06   -0.05   -0.10    0.00    0.00      -1.55   -0.19   -0.37
#  13   -1.59   -0.51    0.02    0.41   -0.07    0.00    0.00      -1.75    2.14   -0.39
#  14   -0.98   -0.34    0.01    0.07   -0.06    0.00    0.00      -1.30    0.55   -0.46
#  15    0.20   -0.27    0.00   -0.04   -0.03    0.00    0.00      -0.14   -0.39   -0.30
#  16   -1.16   -0.13    0.00    0.36    0.04    0.00    0.00      -0.89    6.70    0.68
#  17    0.04   -0.10    0.00   -0.08   -0.01    0.00    0.00      -0.14   -1.36   -0.12
#  18    0.13   -0.31    0.02   -0.16   -0.02    0.00    0.00      -0.35   -0.93   -0.12
#  19   -0.14   -0.50    0.04    0.45   -0.04    0.00    0.00      -0.19    1.89   -0.18
#  20   -0.23   -0.32    0.02    1.17   -0.04    0.00    0.00       0.59    6.66   -0.24
#  21    0.45   -0.14    0.00   -1.17   -0.01    0.00    0.00      -0.87  -22.56   -0.16
#  22   -0.53   -0.09    0.00    1.38   -0.02    0.00    0.00       0.74   35.24   -0.41
#  23   -0.56   -0.07    0.00    1.25   -0.01    0.00    0.00       0.61   40.93   -0.43
#  24   -3.32   -0.66    0.06    3.83    0.06    0.00    0.00      -0.02   15.19    0.24
#  25    1.37   -0.54    0.03   -0.32   -0.06    0.00    0.00       0.48   -1.52   -0.30
#  26   -2.86   -0.90    0.10    3.45   -0.13    0.00    0.00      -0.35   10.79   -0.41
#  27   20.72   -2.08    0.56  -11.11   -0.07    0.00    0.00       8.02  -25.21   -0.17
#  28  -30.52   -4.28    2.78   20.60   -0.17    0.00    0.00     -11.60   39.23   -0.33
#  29  -33.23   -3.76    5.80   19.56   -0.26    0.00    0.00     -11.89   44.43   -0.59
#  30    3.00   -0.03    0.00   -1.72    0.33    0.00    0.00       1.58   -6.48    1.24
#  31    1.94   -0.16    0.03   -0.36   -0.03    0.00    0.00       1.41   -2.22   -0.20
#  32    0.60   -0.47    0.14   -0.54   -0.09    0.00    0.00      -0.36   -1.59   -0.27
#  33    1.41   -0.34    0.13   -0.59   -0.09    0.00    0.00       0.53   -1.87   -0.28
#  34    0.62   -1.20    1.43   -1.12   -0.16    0.00    0.00      -0.42   -1.98   -0.28
#  35    1.47   -0.73    0.29   -1.36   -0.19    0.00    0.00      -0.52   -2.03   -0.28
#  36    2.20   -1.35    2.85   -1.69   -0.18    0.00    0.00       1.83   -2.65   -0.28
#  37    3.04   -0.93    0.70   -1.13   -0.17    0.00    0.00       1.51   -1.91   -0.28
#  38    4.04   -0.43    0.11   -1.03   -0.09    0.00    0.00       2.60   -2.50   -0.22
#  39    1.19   -0.14    0.02   -0.59   -0.03    0.00    0.00       0.45   -4.33   -0.19
#  40    0.56   -0.07    0.00   -0.33   -0.02    0.00    0.00       0.14   -4.21   -0.28
#  41    0.19   -0.02    0.00   -0.12   -0.01    0.00    0.00       0.04   -4.55   -0.28
#  42    0.08   -0.02    0.00   -0.04   -0.01    0.00    0.00       0.01   -1.95   -0.28
#  43    0.24   -0.10    0.01   -0.27   -0.03    0.00    0.00      -0.15   -2.84   -0.28
#  44    0.12   -0.10    0.00   -0.51   -0.03    0.00    0.00      -0.52   -4.78   -0.28
#  45    0.18   -0.37    0.08   -0.30   -0.08    0.00    0.00      -0.50   -1.02   -0.28
#  46    0.09   -0.13    0.02    0.02   -0.04    0.00    0.00      -0.05    0.13   -0.27
#  47    0.07   -0.11    0.01   -0.43   -0.03    0.00    0.00      -0.50   -4.02   -0.28

@<TRIPOS>MOLECULE
       AVX38743_0       100
   47    50     0     0     0



@<TRIPOS>ATOM
      1 O1         10.8667   -26.6127   -25.0486 O.3        1          -0.5417
      2 C1         11.9541   -26.0588   -24.3050 C.3        1           0.1458
      3 C2         13.2699   -26.7457   -24.6956 C.3        1          -0.1087
      4 C3         13.7995   -27.3943   -23.4391 C.ar       1          -0.1031
      5 C4         14.9456   -28.1377   -23.2278 C.ar       1          -0.1097
      6 C5         15.2305   -28.6393   -21.9712 C.ar       1          -0.1373
      7 C6         14.3687   -28.4006   -20.9149 C.ar       1          -0.1187
      8 C7         13.2233   -27.6613   -21.1099 C.ar       1          -0.1068
      9 C8         12.9257   -27.1482   -22.3815 C.ar       1          -0.0183
     10 C9         11.7783   -26.3408   -22.8325 C.2        1          -0.1630
     11 C10        10.7533   -25.9274   -22.0660 C.2        1           0.0360
     12 C11         9.7477   -25.0078   -22.6170 C.ar       1          -0.0343
     13 C12         8.6083   -25.5091   -23.2458 C.ar       1          -0.1292
     14 C13         7.6638   -24.6460   -23.7622 C.ar       1          -0.1214
     15 C14         7.8324   -23.2712   -23.6644 C.ar       1           0.0243
     16 O2          6.8830   -22.4419   -24.1793 O.3        1          -0.3178
     17 C15         7.2702   -21.0829   -24.4051 C.3        1           0.0267
     18 C16         7.9734   -20.5891   -23.1351 C.3        1           0.0404
     19 C17         7.0370   -20.7319   -21.9336 C.3        1          -0.0756
     20 C18         6.0486   -19.5642   -21.9156 C.3        1          -0.1832
     21 C19         5.2393   -19.5714   -23.1867 C.2        1           0.4954
     22 O3          4.5490   -20.5373   -23.4644 O.co2      1          -0.7096
     23 O4          5.2747   -18.6114   -23.9375 O.co2      1          -0.7105
     24 O5          9.1346   -21.4037   -22.9461 O.3        1          -0.2441
     25 C20         8.9609   -22.7468   -23.0433 C.ar       1           0.0915
     26 C21         9.9265   -23.6097   -22.5078 C.ar       1          -0.1142
     27 C22        11.1175   -23.0661   -21.8439 C.2        1           0.5193
     28 O6         11.1005   -22.8464   -20.6399 O.co2      1          -0.6916
     29 O7         12.1278   -22.8328   -22.4943 O.co2      1          -0.6458
     30 H1         10.7760   -27.5711   -24.9580 H          1           0.3658
     31 H2         12.0211   -24.9848   -24.4785 H          1           0.0697
     32 H3         13.0852   -27.5023   -25.4581 H          1           0.0828
     33 H4         13.9821   -26.0078   -25.0647 H          1           0.0765
     34 H5         15.6217   -28.3279   -24.0482 H          1           0.1130
     35 H6         16.1278   -29.2193   -21.8137 H          1           0.1162
     36 H7         14.5951   -28.7948   -19.9352 H          1           0.1195
     37 H8         12.5530   -27.4771   -20.2834 H          1           0.1263
     38 H9         10.6691   -26.2711   -21.0455 H          1           0.1550
     39 H10         8.4649   -26.5763   -23.3292 H          1           0.1214
     40 H11         6.7847   -25.0435   -24.2475 H          1           0.1214
     41 H12         7.9543   -21.0288   -25.2519 H          1           0.1140
     42 H13         6.3874   -20.4740   -24.6000 H          1           0.0724
     43 H14         8.2651   -19.5458   -23.2552 H          1           0.0722
     44 H15         6.4887   -21.6709   -22.0099 H          1           0.0744
     45 H16         7.6223   -20.7267   -21.0141 H          1           0.0715
     46 H17         5.3816   -19.6660   -21.0595 H          1           0.0833
     47 H18         6.5970   -18.6251   -21.8393 H          1           0.0497
@<TRIPOS>BOND
     1    1    2 1
     2    1   30 1
     3    2   10 1
     4    2    3 1
     5    2   31 1
     6    3    4 1
     7    3   32 1
     8    3   33 1
     9    4    9 ar
    10    4    5 ar
    11    5    6 ar
    12    5   34 1
    13    6    7 ar
    14    6   35 1
    15    7    8 ar
    16    7   36 1
    17    8    9 ar
    18    8   37 1
    19    9   10 1
    20   10   11 2
    21   11   12 1
    22   11   38 1
    23   12   26 ar
    24   12   13 ar
    25   13   14 ar
    26   13   39 1
    27   14   15 ar
    28   14   40 1
    29   15   25 ar
    30   15   16 1
    31   16   17 1
    32   17   18 1
    33   17   41 1
    34   17   42 1
    35   18   19 1
    36   18   24 1
    37   18   43 1
    38   19   20 1
    39   19   44 1
    40   19   45 1
    41   20   21 1
    42   20   46 1
    43   20   47 1
    44   21   22 1
    45   21   23 2
    46   24   25 1
    47   25   26 ar
    48   26   27 1
    49   27   28 1
    50   27   29 2
