AVX38786_1, 3
##########                 Name:           AVX38786_0
##########          Protonation:                   77
##########               SMILES:   +](Cc1ccccc1C(=O)NCc2ccc(cc2)OC)Cc3ccc4c(c3C(=O)[O-])OC[C@@H](O4)CCC(=O)[O-]
##########            Long Name:   ]methyl]-2-(3-oxido-3-oxo-propyl)-2,3-dihydro-1,4-benzodioxine-5-carboxylate
##########          FlexRecCode: 1
##########               Number:                  757
##########   Ligand Source File: /raid1/people/rgc/Examples/sampl4/screening/ligands/build_1//sampl4-hivint-00000
##########           GlobalRank: 89
##########                 Rank:                    1
##########               Setnum:                  296
##########             Matchnum:                 7235
##########                Cloud:                    1
##########        Electrostatic:           -36.000225
##########        Van der Waals:           -18.276314
##########  Ligand Polar Desolv:            20.630404
########## Ligand Apolar Desolv:            -2.721540
##########      Internal Energy:             0.000000
##########      Receptor Energy: 0.0
########## Receptor Desolvation:             0.000000
########## Receptor Hydrophobic:             0.000000
##########         Total Energy: -36.37
##########        Ligand Charge:            -1.000000
##########            Arbitrary:    +999.9990
##########     heavy atom count:   40
##########           pose count:    1
##########        Ligand Energy:             0.000000
# num electro vdwattr vdwrepu polsolv apolsol rdesolv rhydroe totalscore fullpol fullapo
#   1    0.00   -0.11    0.01    0.00    0.00    0.00    0.00      -0.10    0.01    0.03
#   2   -0.07   -0.07    0.00    0.05    0.03    0.00    0.00      -0.05    1.48    0.93
#   3    0.04   -0.15    0.01   -0.02   -0.02    0.00    0.00      -0.13   -0.37   -0.31
#   4   -0.07   -0.06    0.00    0.01   -0.01    0.00    0.00      -0.13    0.24   -0.42
#   5   -0.02   -0.06    0.00    0.00   -0.01    0.00    0.00      -0.09    0.00   -0.45
#   6   -0.07   -0.16    0.01    0.01   -0.02    0.00    0.00      -0.23    0.10   -0.37
#   7    0.09   -0.09    0.00   -0.01   -0.03    0.00    0.00      -0.03   -0.12   -0.44
#   8   -0.39   -0.24    0.01   -0.02    0.24    0.00    0.00      -0.39   -0.18    2.32
#   9    0.35   -0.34    0.04   -0.10   -0.08    0.00    0.00      -0.13   -0.87   -0.65
#  10   -0.74   -0.24    0.01    0.26    0.04    0.00    0.00      -0.67    2.34    0.32
#  11   -0.13   -0.52    0.08    0.01   -0.07    0.00    0.00      -0.63    0.07   -0.41
#  12   -0.05   -0.67    0.13   -0.02   -0.08    0.00    0.00      -0.69   -0.11   -0.44
#  13   -0.08   -0.66    0.07   -0.04   -0.10    0.00    0.00      -0.81   -0.17   -0.47
#  14   -0.10   -1.26    0.86    0.00   -0.12    0.00    0.00      -0.62    0.00   -0.47
#  15   -0.26   -1.44    0.67    0.02   -0.09    0.00    0.00      -1.10    0.08   -0.34
#  16   -0.11   -0.64    0.07    0.01   -0.08    0.00    0.00      -0.75    0.04   -0.39
#  17    0.21   -0.41    0.04    0.00   -0.05    0.00    0.00      -0.22   -0.01   -0.26
#  18   -2.92   -0.47    0.03   -0.03    0.04    0.00    0.00      -3.35   -0.13    0.16
#  19    2.56   -0.01    0.00   -0.21    0.04    0.00    0.00       2.38   -1.74    0.33
#  20   -0.64   -0.66    0.07   -0.14   -0.14    0.00    0.00      -1.52   -0.42   -0.41
#  21    0.72   -0.30    0.01   -0.02   -0.05    0.00    0.00       0.35   -0.13   -0.29
#  22   -1.87   -0.40    0.01    0.05   -0.05    0.00    0.00      -2.26    0.30   -0.30
#  23   -0.95   -0.48    0.03   -0.02   -0.07    0.00    0.00      -1.49   -0.13   -0.40
#  24   -0.91   -0.63    0.03    0.18   -0.11    0.00    0.00      -1.43    0.78   -0.46
#  25    0.79   -0.67    0.03    0.02   -0.08    0.00    0.00       0.09    0.06   -0.30
#  26   -2.14   -0.95    0.09    1.96    0.19    0.00    0.00      -0.85    6.31    0.62
#  27    0.40   -1.20    0.66   -0.54   -0.04    0.00    0.00      -0.72   -1.59   -0.12
#  28   -0.80   -0.68    0.18    0.34   -0.04    0.00    0.00      -1.00    1.37   -0.18
#  29   -0.27   -0.46    0.06    0.71   -0.05    0.00    0.00      -0.01    3.61   -0.24
#  30    0.88   -0.32    0.02   -2.02   -0.02    0.00    0.00      -1.46  -15.59   -0.16
#  31   -1.41   -0.36    0.02    4.43   -0.06    0.00    0.00       2.62   28.34   -0.41
#  32   -1.05   -0.12    0.00    1.78   -0.03    0.00    0.00       0.59   30.57   -0.43
#  33    0.38   -1.16    0.37   -0.19   -0.05    0.00    0.00      -0.64   -0.48   -0.12
#  34   -9.16   -1.26    0.38    2.76    0.09    0.00    0.00      -7.19    7.97    0.27
#  35    2.05   -0.72    0.06   -0.10   -0.08    0.00    0.00       1.22   -0.37   -0.30
#  36   -2.98   -0.63    0.04    0.79   -0.10    0.00    0.00      -2.87    3.30   -0.40
#  37   18.47   -1.42    0.29   -4.59   -0.06    0.00    0.00      12.70  -12.07   -0.15
#  38  -27.68   -1.57    0.38    6.01   -0.12    0.00    0.00     -22.98   14.58   -0.30
#  39  -24.29   -3.01    1.80   11.38   -0.28    0.00    0.00     -14.40   24.37   -0.59
#  40   -0.02   -0.61    0.30    0.02   -0.05    0.00    0.00      -0.37    0.14   -0.45
#  41   -0.06   -0.65    0.32    0.07   -0.05    0.00    0.00      -0.37    0.68   -0.46
#  42    0.01   -0.01    0.00    0.00    0.00    0.00    0.00      -0.01    0.11   -0.27
#  43    0.01   -0.03    0.00    0.00   -0.01    0.00    0.00      -0.02    0.08   -0.26
#  44    0.01   -0.10    0.02    0.01   -0.02    0.00    0.00      -0.07    0.18   -0.28
#  45    0.04    0.00    0.00    0.00    0.00    0.00    0.00       0.03    0.15   -0.22
#  46    0.05   -0.01    0.00    0.00    0.00    0.00    0.00       0.05    0.35   -0.28
#  47    0.05   -0.03    0.00    0.00   -0.01    0.00    0.00       0.00   -0.13   -0.28
#  48    0.05   -0.01    0.00    0.00    0.00    0.00    0.00       0.03   -0.03   -0.28
#  49    0.20    0.00    0.00    0.05    0.02    0.00    0.00       0.27    0.96    0.44
#  50    0.07   -0.14    0.02    0.10   -0.03    0.00    0.00       0.02    0.71   -0.22
#  51    0.03   -0.12    0.00    0.07   -0.03    0.00    0.00      -0.05    0.58   -0.28
#  52    0.21   -0.53    1.09    0.04   -0.06    0.00    0.00       0.74    0.17   -0.28
#  53    0.22   -0.71    0.79    0.00   -0.05    0.00    0.00       0.24   -0.01   -0.18
#  54    0.50   -0.06    0.00   -0.02   -0.01    0.00    0.00       0.41   -0.36   -0.26
#  55    0.46   -0.32    0.19    0.12   -0.05    0.00    0.00       0.39    0.57   -0.23
#  56    1.43   -0.18    0.01    0.11   -0.05    0.00    0.00       1.33    0.53   -0.23
#  57    1.55   -0.36    0.09    0.60   -0.09    0.00    0.00       1.80    1.86   -0.28
#  58    0.80   -0.20    0.02    0.20   -0.04    0.00    0.00       0.77    0.83   -0.18
#  59    1.47   -0.05    0.00   -0.03   -0.01    0.00    0.00       1.38   -0.59   -0.20
#  60    1.92   -0.17    0.02    0.16   -0.04    0.00    0.00       1.90    1.05   -0.27
#  61    0.68   -0.12    0.02    0.11   -0.03    0.00    0.00       0.65    0.93   -0.28
#  62    0.60   -0.17    0.01   -0.24   -0.05    0.00    0.00       0.15   -1.22   -0.28
#  63   -0.11   -1.29    3.88   -0.57   -0.10    0.00    0.00       1.82   -1.63   -0.28
#  64    0.93   -0.15    0.04   -0.18   -0.04    0.00    0.00       0.61   -1.29   -0.28
#  65    1.24   -0.32    0.16   -0.46   -0.07    0.00    0.00       0.55   -1.97   -0.28
#  66   -0.21   -0.35    0.15   -0.47   -0.06    0.00    0.00      -0.93   -2.28   -0.28
#  67    0.09   -0.08    0.00   -0.17   -0.02    0.00    0.00      -0.17   -2.22   -0.27
#  68    2.05   -0.37    0.06   -0.93   -0.10    0.00    0.00       0.73   -2.63   -0.28
#  69    1.85   -0.52    0.38   -0.57   -0.10    0.00    0.00       1.03   -1.57   -0.28
#  70    0.05   -0.21    0.12   -0.02   -0.03    0.00    0.00      -0.09   -0.18   -0.28
#  71    0.04   -0.25    0.14   -0.06   -0.03    0.00    0.00      -0.17   -0.49   -0.28

@<TRIPOS>MOLECULE
       AVX38786_0        77
   71    74     0     0     0



@<TRIPOS>ATOM
      1 C1         -0.5843   -22.3673   -31.1093 C.3        1           0.0258
      2 O1         -0.2728   -21.5594   -29.9724 O.3        1          -0.3161
      3 C2          0.7826   -21.9482   -29.2095 C.ar       1           0.1381
      4 C3          1.1372   -21.2133   -28.0875 C.ar       1          -0.2113
      5 C4          2.2101   -21.6109   -27.3137 C.ar       1          -0.0580
      6 C5          2.9306   -22.7403   -27.6565 C.ar       1          -0.1532
      7 C6          4.1009   -23.1714   -26.8107 C.3        1           0.1661
      8 N1          3.6364   -24.0843   -25.7634 N.am       1          -0.7176
      9 C7          4.5149   -24.6015   -24.8817 C.2        1           0.5590
     10 O2          5.6927   -24.3103   -24.9556 O.2        1          -0.5336
     11 C8          4.0460   -25.5228   -23.8248 C.ar       1          -0.1206
     12 C9          2.9419   -26.3461   -24.0518 C.ar       1          -0.0734
     13 C10         2.5097   -27.2037   -23.0616 C.ar       1          -0.1169
     14 C11         3.1680   -27.2488   -21.8453 C.ar       1          -0.0706
     15 C12         4.2629   -26.4355   -21.6139 C.ar       1          -0.1431
     16 C13         4.7088   -25.5772   -22.5980 C.ar       1          -0.0522
     17 C14         5.9052   -24.6962   -22.3461 C.3        1           0.0506
     18 N2          7.1271   -25.3999   -22.7583 N.4        1          -0.3733
     19 H1          6.9530   -25.9017   -23.6161 H          1           0.4293
     20 C15         7.5241   -26.3476   -21.7085 C.3        1          -0.0634
     21 C16         8.2053   -24.4252   -22.9712 C.3        1           0.0590
     22 C17         9.2737   -25.0395   -23.8387 C.ar       1          -0.1330
     23 C18         8.9230   -25.7444   -24.9685 C.ar       1          -0.1129
     24 C19         9.8989   -26.3128   -25.7706 C.ar       1          -0.1203
     25 C20        11.2391   -26.1786   -25.4459 C.ar       1           0.0659
     26 O3         12.1852   -26.7469   -26.2428 O.3        1          -0.2954
     27 C21        13.5245   -26.2644   -26.0941 C.3        1           0.0487
     28 C22        13.6357   -24.8532   -26.6745 C.3        1          -0.0829
     29 C23        13.7679   -24.9366   -28.1965 C.3        1          -0.1807
     30 C24        13.8775   -23.5465   -28.7682 C.2        1           0.4904
     31 O4         14.7970   -22.8199   -28.4321 O.co2      1          -0.6998
     32 O5         13.0466   -23.1486   -29.5669 O.co2      1          -0.7060
     33 C25        13.8386   -26.2365   -24.5937 C.3        1           0.0181
     34 O6         12.9193   -25.3267   -23.9809 O.3        1          -0.2585
     35 C26        11.6100   -25.4685   -24.3099 C.ar       1           0.0885
     36 C27        10.6230   -24.8890   -23.4997 C.ar       1          -0.1257
     37 C28        11.0038   -24.1312   -22.2968 C.2        1           0.5226
     38 O7         11.2073   -22.9271   -22.3714 O.co2      1          -0.7091
     39 O8         11.1170   -24.7054   -21.2225 O.co2      1          -0.6285
     40 C29         2.5790   -23.4746   -28.7740 C.ar       1          -0.0575
     41 C30         1.5036   -23.0841   -29.5484 C.ar       1          -0.1532
     42 H2         -1.4449   -21.9465   -31.6291 H          1           0.0569
     43 H3          0.2717   -22.3907   -31.7837 H          1           0.0573
     44 H4         -0.8169   -23.3805   -30.7821 H          1           0.1023
     45 H5          0.5753   -20.3308   -27.8197 H          1           0.1307
     46 H6          2.4866   -21.0392   -26.4401 H          1           0.1275
     47 H7          4.8340   -23.6799   -27.4369 H          1           0.0821
     48 H8          4.5599   -22.2957   -26.3520 H          1           0.0798
     49 H9          2.6964   -24.3167   -25.7044 H          1           0.4024
     50 H10         2.4268   -26.3115   -25.0004 H          1           0.1330
     51 H11         1.6556   -27.8414   -23.2360 H          1           0.1375
     52 H12         2.8253   -27.9215   -21.0730 H          1           0.1390
     53 H13         4.7720   -26.4752   -20.6622 H          1           0.1297
     54 H14         5.8053   -23.7750   -22.9202 H          1           0.1509
     55 H15         5.9639   -24.4579   -21.2841 H          1           0.1474
     56 H16         8.4307   -26.8697   -22.0142 H          1           0.1217
     57 H17         7.7121   -25.8053   -20.7817 H          1           0.1168
     58 H18         6.7241   -27.0708   -21.5503 H          1           0.1161
     59 H19         7.8027   -23.5397   -23.4631 H          1           0.1659
     60 H20         8.6353   -24.1432   -22.0102 H          1           0.1109
     61 H21         7.8811   -25.8549   -25.2305 H          1           0.1286
     62 H22         9.6134   -26.8642   -26.6543 H          1           0.1365
     63 H23        14.2171   -26.9313   -26.6077 H          1           0.0829
     64 H24        12.7426   -24.2834   -26.4181 H          1           0.0739
     65 H25        14.5140   -24.3581   -26.2602 H          1           0.0869
     66 H26        14.6610   -25.5063   -28.4530 H          1           0.0565
     67 H27        12.8897   -25.4316   -28.6109 H          1           0.0635
     68 H28        13.7111   -27.2328   -24.1701 H          1           0.1243
     69 H29        14.8607   -25.8925   -24.4357 H          1           0.0756
     70 H30         3.1431   -24.3564   -29.0396 H          1           0.1337
     71 H31         1.2270   -23.6601   -30.4189 H          1           0.1344
@<TRIPOS>BOND
     1    1    2 1
     2    1   42 1
     3    1   43 1
     4    1   44 1
     5    2    3 1
     6    3   41 ar
     7    3    4 ar
     8    4    5 ar
     9    4   45 1
    10    5    6 ar
    11    5   46 1
    12    6    7 1
    13    6   40 ar
    14    7    8 1
    15    7   47 1
    16    7   48 1
    17    8    9 am
    18    8   49 1
    19    9   10 2
    20    9   11 1
    21   11   16 ar
    22   11   12 ar
    23   12   13 ar
    24   12   50 1
    25   13   14 ar
    26   13   51 1
    27   14   15 ar
    28   14   52 1
    29   15   16 ar
    30   15   53 1
    31   16   17 1
    32   17   18 1
    33   17   54 1
    34   17   55 1
    35   18   19 1
    36   18   20 1
    37   18   21 1
    38   20   56 1
    39   20   57 1
    40   20   58 1
    41   21   22 1
    42   21   59 1
    43   21   60 1
    44   22   36 ar
    45   22   23 ar
    46   23   24 ar
    47   23   61 1
    48   24   25 ar
    49   24   62 1
    50   25   35 ar
    51   25   26 1
    52   26   27 1
    53   27   28 1
    54   27   33 1
    55   27   63 1
    56   28   29 1
    57   28   64 1
    58   28   65 1
    59   29   30 1
    60   29   66 1
    61   29   67 1
    62   30   31 1
    63   30   32 2
    64   33   34 1
    65   33   68 1
    66   33   69 1
    67   34   35 1
    68   35   36 ar
    69   36   37 1
    70   37   38 1
    71   37   39 2
    72   40   41 ar
    73   40   70 1
    74   41   71 1
