AVX40812_0, 3
##########                 Name:           AVX40812_0
##########          Protonation:                  100
##########               SMILES:   CC(C)C[C@H](Cc1ccc2c(c1C(=O)[O-])OCO2)CNC(=O)Cc3c[nH]c4c3cccc4
##########            Long Name:   ol-3-yl)acetyl]amino]methyl]-4-methyl-pentyl]-1,3-benzodioxole-4-carboxylate
##########          FlexRecCode: 1
##########               Number:                  494
##########   Ligand Source File: /raid1/people/rgc/Examples/sampl4/screening/ligands/build_1//sampl4-hivint-00000
##########           GlobalRank: 85
##########                 Rank:                    1
##########               Setnum:                  144
##########             Matchnum:                 1128
##########                Cloud:                    1
##########        Electrostatic:           -39.882683
##########        Van der Waals:           -20.498297
##########  Ligand Polar Desolv:            25.343628
########## Ligand Apolar Desolv:            -1.741476
##########      Internal Energy:             0.000000
##########      Receptor Energy: 0.0
########## Receptor Desolvation:             0.000000
########## Receptor Hydrophobic:             0.000000
##########         Total Energy: -36.78
##########        Ligand Charge:            -1.000000
##########            Arbitrary:    +999.9990
##########     heavy atom count:   32
##########           pose count:    1
##########        Ligand Energy:             0.000000
# num electro vdwattr vdwrepu polsolv apolsol rdesolv rhydroe totalscore fullpol fullapo
#   1   -0.12   -0.04    0.00    0.02    0.00    0.00    0.00      -0.14    0.83   -0.18
#   2   -0.13   -0.07    0.00    0.05   -0.01    0.00    0.00      -0.15    1.35   -0.18
#   3   -0.15   -0.07    0.00    0.09   -0.01    0.00    0.00      -0.13    2.45   -0.18
#   4   -0.19   -0.20    0.01    0.11   -0.02    0.00    0.00      -0.29    0.87   -0.18
#   5   -0.69   -0.19    0.00    0.25   -0.01    0.00    0.00      -0.64    2.06   -0.12
#   6    0.84   -0.15    0.01   -0.28   -0.04    0.00    0.00       0.37   -2.87   -0.38
#   7   -6.91   -0.24    0.00    1.09    0.20    0.00    0.00      -5.85   11.62    2.14
#   8    2.82   -0.26    0.01   -0.86   -0.07    0.00    0.00       1.65   -8.50   -0.66
#   9   -1.24   -0.16    0.00    1.19    0.03    0.00    0.00      -0.17   13.84    0.38
#  10   -0.39   -0.50    0.12    0.10   -0.05    0.00    0.00      -0.73    0.51   -0.27
#  11   -0.94   -0.79    0.08    0.75   -0.08    0.00    0.00      -0.98    2.98   -0.33
#  12    0.42   -1.51    0.31   -0.29   -0.33    0.00    0.00      -1.40   -0.88   -0.99
#  13   -3.33   -2.37    0.92    1.65    0.42    0.00    0.00      -2.71    4.57    1.17
#  14    0.44   -1.21    0.26   -0.19   -0.21    0.00    0.00      -0.91   -0.70   -0.78
#  15   -0.30   -1.19    0.37    0.31   -0.12    0.00    0.00      -0.93    1.27   -0.48
#  16   -0.13   -0.47    0.05    0.18   -0.06    0.00    0.00      -0.43    1.29   -0.47
#  17   -0.23   -0.24    0.01    0.21   -0.04    0.00    0.00      -0.29    2.34   -0.47
#  18   -0.19   -0.28    0.01    0.26   -0.05    0.00    0.00      -0.26    2.30   -0.47
#  19   -0.43   -0.58    0.04    0.49   -0.09    0.00    0.00      -0.58    2.39   -0.44
#  20   -0.86   -0.57    0.06    0.36   -0.05    0.00    0.00      -1.06    1.38   -0.18
#  21   -0.73   -1.01    0.17    0.27   -0.06    0.00    0.00      -1.37    1.01   -0.23
#  22   -0.93   -0.93    0.12    0.18   -0.09    0.00    0.00      -1.66    0.70   -0.36
#  23   -0.79   -1.41    0.45    0.22   -0.14    0.00    0.00      -1.67    0.72   -0.47
#  24    0.17   -1.49    0.35   -0.11   -0.12    0.00    0.00      -1.20   -0.31   -0.33
#  25   -3.25   -1.71    0.86    2.06    0.22    0.00    0.00      -1.82    4.88    0.52
#  26    2.43   -1.64    1.13   -1.41    0.01    0.00    0.00       0.52   -3.13    0.02
#  27   -5.85   -1.66    0.44    4.41    0.21    0.00    0.00      -2.45    9.87    0.48
#  28    0.95   -1.76    1.09    0.22   -0.11    0.00    0.00       0.37    0.63   -0.33
#  29   -2.00   -1.50    0.80    1.53   -0.13    0.00    0.00      -1.30    4.82   -0.40
#  30   18.37   -1.53    0.33   -7.64   -0.05    0.00    0.00       9.48  -19.36   -0.12
#  31  -23.22   -0.98    0.16   10.99   -0.14    0.00    0.00     -13.19   33.07   -0.42
#  32  -30.58   -3.17    1.41   14.13   -0.18    0.00    0.00     -18.38   28.52   -0.36
#  33    0.04   -0.01    0.00   -0.01    0.00    0.00    0.00       0.02   -0.34   -0.28
#  34    0.04   -0.01    0.00   -0.01    0.00    0.00    0.00       0.01   -0.55   -0.28
#  35    0.03   -0.01    0.00   -0.01    0.00    0.00    0.00       0.02   -0.50   -0.28
#  36    0.11   -0.02    0.00   -0.01    0.00    0.00    0.00       0.08   -0.73   -0.11
#  37    0.04   -0.04    0.00   -0.04   -0.01    0.00    0.00      -0.04   -1.19   -0.28
#  38    0.07   -0.01    0.00    0.00    0.00    0.00    0.00       0.06    0.36   -0.19
#  39    0.04   -0.02    0.00   -0.01   -0.01    0.00    0.00       0.00   -0.56   -0.28
#  40    0.29   -0.10    0.00   -0.11   -0.03    0.00    0.00       0.06   -0.93   -0.22
#  41    0.08   -0.07    0.00   -0.06   -0.02    0.00    0.00      -0.06   -1.04   -0.26
#  42    0.44   -0.03    0.00   -0.03    0.00    0.00    0.00       0.37   -0.90   -0.11
#  43    0.17   -0.02    0.00   -0.04   -0.01    0.00    0.00       0.10   -1.63   -0.28
#  44    0.42   -0.09    0.01    0.08   -0.03    0.00    0.00       0.39    0.81   -0.28
#  45    5.96    0.00    0.00   -0.34    0.03    0.00    0.00       5.64   -5.69    0.49
#  46    0.76   -0.14    0.03   -0.16   -0.04    0.00    0.00       0.46   -1.23   -0.28
#  47    0.33   -0.38    0.29   -0.24   -0.06    0.00    0.00      -0.07   -1.16   -0.28
#  48    1.32   -0.36    0.09   -0.27   -0.08    0.00    0.00       0.69   -0.90   -0.28
#  49    1.81   -0.08    0.01   -0.67    0.23    0.00    0.00       1.29   -1.71    0.59
#  50   -0.06   -0.35    0.09   -0.29   -0.07    0.00    0.00      -0.69   -1.11   -0.28
#  51    0.08   -0.06    0.00   -0.07   -0.02    0.00    0.00      -0.06   -1.30   -0.28
#  52    0.08   -0.02    0.00   -0.04   -0.01    0.00    0.00       0.02   -1.76   -0.28
#  53    0.28   -0.03    0.00   -0.05   -0.01    0.00    0.00       0.19   -1.70   -0.28
#  54    1.84   -0.22    0.03    0.04   -0.06    0.00    0.00       1.64    0.17   -0.26
#  55    0.49   -0.29    0.05   -0.53   -0.06    0.00    0.00      -0.34   -2.18   -0.26
#  56    0.52   -0.12    0.01   -0.22   -0.04    0.00    0.00       0.15   -1.66   -0.28
#  57    0.20   -0.43    0.45   -0.37   -0.06    0.00    0.00      -0.21   -1.72   -0.28
#  58    1.24   -1.37    3.32   -1.02   -0.13    0.00    0.00       2.05   -2.28   -0.28
#  59    0.63   -0.33    0.07   -0.52   -0.09    0.00    0.00      -0.24   -1.60   -0.28

@<TRIPOS>MOLECULE
       AVX40812_0       100
   59    62     0     0     0



@<TRIPOS>ATOM
      1 C1          5.8532   -20.3376   -25.2760 C.3        1          -0.1408
      2 C2          7.2754   -19.7738   -25.2844 C.3        1          -0.1168
      3 C3          7.2220   -18.2582   -25.4873 C.3        1          -0.1549
      4 C4          7.9558   -20.0859   -23.9501 C.3        1          -0.1017
      5 C5          8.0094   -21.6014   -23.7471 C.3        1          -0.1202
      6 C6          8.8047   -22.2409   -24.8869 C.3        1           0.1310
      7 N1          8.8561   -23.6921   -24.6925 N.am       1          -0.7237
      8 C7          7.8975   -24.4773   -25.2224 C.2        1           0.5090
      9 O1          6.9922   -23.9826   -25.8603 O.2        1          -0.5348
     10 C8          7.9504   -25.9700   -25.0226 C.3        1          -0.0671
     11 C9          9.2291   -26.5103   -25.6092 C.2        1          -0.1460
     12 C10        10.0537   -27.4038   -25.0401 C.2        1           0.0589
     13 N2         11.1131   -27.6548   -25.8690 N.pl3      1          -0.5961
     14 C11        10.9929   -26.9101   -27.0207 C.ar       1           0.0946
     15 C12        11.7715   -26.7866   -28.1671 C.ar       1          -0.1348
     16 C13        11.3750   -25.9356   -29.1751 C.ar       1          -0.1006
     17 C14        10.2044   -25.1980   -29.0595 C.ar       1          -0.1478
     18 C15         9.4248   -25.3040   -27.9426 C.ar       1          -0.0645
     19 C16         9.8048   -26.1650   -26.9111 C.ar       1          -0.0891
     20 C17         8.6899   -21.9134   -22.4126 C.3        1          -0.0658
     21 C18         8.3216   -23.3076   -21.9748 C.ar       1          -0.0493
     22 C19         7.0011   -23.6378   -21.7653 C.ar       1          -0.1159
     23 C20         6.6539   -24.9172   -21.3632 C.ar       1          -0.1164
     24 C21         7.6301   -25.8794   -21.1671 C.ar       1           0.0142
     25 O2          7.5476   -27.1861   -20.7799 O.3        1          -0.3173
     26 C22         8.8091   -27.7751   -21.1472 C.3        1           0.2110
     27 O3          9.7257   -26.6650   -21.1185 O.3        1          -0.2990
     28 C23         8.9700   -25.5619   -21.3747 C.ar       1           0.0482
     29 C24         9.3208   -24.2692   -21.7866 C.ar       1          -0.0872
     30 C25        10.7330   -23.9230   -22.0148 C.2        1           0.5367
     31 O4         11.2281   -24.0727   -23.1235 O.co2      1          -0.6781
     32 O5         11.4116   -23.4854   -21.0957 O.co2      1          -0.6731
     33 H1          5.8913   -21.4174   -25.1314 H          1           0.0475
     34 H2          5.2865   -19.8821   -24.4640 H          1           0.0480
     35 H3          5.3685   -20.1153   -26.2267 H          1           0.0463
     36 H4          7.8421   -20.2293   -26.0965 H          1           0.0930
     37 H5          8.2352   -17.8565   -25.4933 H          1           0.0420
     38 H6          6.7373   -18.0357   -26.4379 H          1           0.0840
     39 H7          6.6554   -17.8027   -24.6752 H          1           0.0420
     40 H8          8.9689   -19.6841   -23.9562 H          1           0.0557
     41 H9          7.3892   -19.6303   -23.1380 H          1           0.0571
     42 H10         6.9961   -22.0032   -23.7410 H          1           0.1241
     43 H11         8.3201   -22.0186   -25.8376 H          1           0.0582
     44 H12         9.8180   -21.8390   -24.8930 H          1           0.0707
     45 H13         9.5800   -24.0876   -24.1823 H          1           0.3993
     46 H14         7.9159   -26.1953   -23.9567 H          1           0.1004
     47 H15         7.0983   -26.4336   -25.5197 H          1           0.0974
     48 H16         9.9034   -27.8569   -24.0713 H          1           0.1674
     49 H17        11.8403   -28.2662   -25.6741 H          1           0.4137
     50 H18        12.6839   -27.3557   -28.2662 H          1           0.1162
     51 H19        11.9809   -25.8408   -30.0640 H          1           0.1222
     52 H20         9.9079   -24.5350   -29.8589 H          1           0.1216
     53 H21         8.5155   -24.7272   -27.8597 H          1           0.1213
     54 H22         9.7711   -21.8435   -22.5311 H          1           0.0846
     55 H23         8.3597   -21.1972   -21.6602 H          1           0.0690
     56 H24         6.2317   -22.8947   -21.9149 H          1           0.1302
     57 H25         5.6154   -25.1656   -21.2015 H          1           0.1252
     58 H26         9.1033   -28.5337   -20.4219 H          1           0.1238
     59 H27         8.7554   -28.2018   -22.1488 H          1           0.0767
@<TRIPOS>BOND
     1    1    2 1
     2    1   33 1
     3    1   34 1
     4    1   35 1
     5    2    3 1
     6    2    4 1
     7    2   36 1
     8    3   37 1
     9    3   38 1
    10    3   39 1
    11    4    5 1
    12    4   40 1
    13    4   41 1
    14    5    6 1
    15    5   20 1
    16    5   42 1
    17    6    7 1
    18    6   43 1
    19    6   44 1
    20    7    8 am
    21    7   45 1
    22    8    9 2
    23    8   10 1
    24   10   11 1
    25   10   46 1
    26   10   47 1
    27   11   19 1
    28   11   12 2
    29   12   13 1
    30   12   48 1
    31   13   14 1
    32   13   49 1
    33   14   19 ar
    34   14   15 ar
    35   15   16 ar
    36   15   50 1
    37   16   17 ar
    38   16   51 1
    39   17   18 ar
    40   17   52 1
    41   18   19 ar
    42   18   53 1
    43   20   21 1
    44   20   54 1
    45   20   55 1
    46   21   29 ar
    47   21   22 ar
    48   22   23 ar
    49   22   56 1
    50   23   24 ar
    51   23   57 1
    52   24   28 ar
    53   24   25 1
    54   25   26 1
    55   26   27 1
    56   26   58 1
    57   26   59 1
    58   27   28 1
    59   28   29 ar
    60   29   30 1
    61   30   31 1
    62   30   32 2
