AVX40911_0, 3
##########                 Name:           AVX40911_0
##########          Protonation:                  100
##########               SMILES:   c1ccc(cc1)/C=C/c2ccc3c(c2C(=O)[O-])OCO3
##########            Long Name:   5-[(E)-styryl]-1,3-benzodioxole-4-carboxylate
##########          FlexRecCode: 1
##########               Number:                  359
##########   Ligand Source File: /raid1/people/rgc/Examples/sampl4/screening/ligands/build_1//sampl4-hivint-00000
##########           GlobalRank: 56
##########                 Rank:                    1
##########               Setnum:                    7
##########             Matchnum:                 4069
##########                Cloud:                    1
##########        Electrostatic:           -41.064056
##########        Van der Waals:           -22.247797
##########  Ligand Polar Desolv:            28.124229
########## Ligand Apolar Desolv:            -3.970227
##########      Internal Energy:             0.000000
##########      Receptor Energy: 0.0
########## Receptor Desolvation:             0.000000
########## Receptor Hydrophobic:             0.000000
##########         Total Energy: -39.16
##########        Ligand Charge:            -1.000000
##########            Arbitrary:    +999.9990
##########     heavy atom count:   20
##########           pose count:    1
##########        Ligand Energy:             0.000000
# num electro vdwattr vdwrepu polsolv apolsol rdesolv rhydroe totalscore fullpol fullapo
#   1  -21.55   -2.23    1.19   13.95   -0.17    0.00    0.00      -8.82   32.95   -0.41
#   2   18.13   -1.99    0.63   -8.85   -0.06    0.00    0.00       7.86  -20.80   -0.13
#   3  -31.21   -2.59    1.24   15.57   -0.19    0.00    0.00     -17.18   33.59   -0.41
#   4   -1.66   -2.00    1.84    2.19   -0.14    0.00    0.00       0.23    6.39   -0.40
#   5    0.62   -1.31    0.36    0.09   -0.09    0.00    0.00      -0.33    0.32   -0.33
#   6   -2.40   -0.80    0.07    2.77    0.13    0.00    0.00      -0.23   10.04    0.48
#   7    0.68   -0.72    0.09   -0.83    0.01    0.00    0.00      -0.78   -3.04    0.02
#   8   -0.98   -0.82    0.16    1.11    0.13    0.00    0.00      -0.41    4.66    0.53
#   9    0.22   -1.16    0.23   -0.12   -0.09    0.00    0.00      -0.93   -0.44   -0.33
#  10   -1.06   -1.22    0.19    0.16   -0.16    0.00    0.00      -2.07    0.49   -0.47
#  11   -1.49   -1.43    0.34    0.33   -0.16    0.00    0.00      -2.41    0.89   -0.44
#  12   -1.07   -1.90    1.39    0.35   -0.14    0.00    0.00      -1.38    0.97   -0.40
#  13   -1.52   -2.16    0.68    2.02   -0.18    0.00    0.00      -1.16    4.52   -0.41
#  14   -3.60   -1.41    0.23    0.05   -0.17    0.00    0.00      -4.91    0.13   -0.42
#  15   -1.02   -2.45    1.08    0.88   -0.20    0.00    0.00      -1.71    1.83   -0.41
#  16   -2.95   -3.91    2.33    1.82   -0.25    0.00    0.00      -2.96    3.18   -0.44
#  17   -2.62   -3.72    1.64    1.44   -0.32    0.00    0.00      -3.58    2.10   -0.47
#  18   -2.45   -2.88    0.66    0.58   -0.32    0.00    0.00      -4.42    0.85   -0.47
#  19   -2.03   -2.89    1.03    0.44   -0.28    0.00    0.00      -3.73    0.74   -0.47
#  20   -2.59   -2.02    0.47    0.28   -0.21    0.00    0.00      -4.07    0.61   -0.45
#  21    0.47   -0.63    0.33   -0.78   -0.09    0.00    0.00      -0.69   -2.29   -0.28
#  22    0.09   -0.09    0.00   -0.16   -0.03    0.00    0.00      -0.19   -1.66   -0.28
#  23    0.72   -0.22    0.03   -0.44   -0.07    0.00    0.00       0.01   -1.79   -0.28
#  24    1.61   -0.32    0.10   -0.58   -0.07    0.00    0.00       0.74   -1.94   -0.22
#  25    3.83   -1.04    1.18   -0.56   -0.09    0.00    0.00       3.32   -1.07   -0.18
#  26    2.38   -0.15    0.01   -0.29   -0.03    0.00    0.00       1.92   -2.00   -0.22
#  27    3.06   -0.91    0.66   -0.84   -0.12    0.00    0.00       1.85   -1.42   -0.21
#  28    2.52   -1.06    1.45   -1.11   -0.17    0.00    0.00       1.62   -1.79   -0.28
#  29    1.75   -0.61    0.12   -0.71   -0.19    0.00    0.00       0.36   -1.04   -0.28
#  30    0.82   -1.46    4.36   -0.34   -0.15    0.00    0.00       3.23   -0.65   -0.28
#  31    2.24   -0.25    0.02   -0.28   -0.08    0.00    0.00       1.65   -0.95   -0.28

@<TRIPOS>MOLECULE
       AVX40911_0       100
   31    33     0     0     0



@<TRIPOS>ATOM
      1 O1         10.3548   -22.0232   -21.7877 O.co2      1          -0.6759
      2 C1         10.4980   -23.2321   -21.6612 C.2        1           0.5308
      3 O2         11.6223   -23.7125   -21.6032 O.co2      1          -0.6764
      4 C2          9.3214   -24.1052   -21.5729 C.ar       1          -0.0694
      5 C3          8.0334   -23.5630   -21.6442 C.ar       1           0.0439
      6 O3          7.5854   -22.2879   -21.7911 O.3        1          -0.2976
      7 C4          6.2205   -22.2808   -21.3467 C.3        1           0.2104
      8 O4          5.8080   -23.6204   -21.6557 O.3        1          -0.3153
      9 C5          6.9222   -24.4001   -21.5592 C.ar       1           0.0266
     10 C6          7.0881   -25.7678   -21.4049 C.ar       1          -0.1175
     11 C7          8.3521   -26.3184   -21.3333 C.ar       1          -0.1037
     12 C8          9.4797   -25.5024   -21.4208 C.ar       1          -0.0470
     13 C9         10.8249   -26.0905   -21.3505 C.2        1          -0.0556
     14 C10        11.4459   -26.4851   -22.4765 C.2        1          -0.1438
     15 C11        12.7941   -27.0744   -22.4061 C.ar       1          -0.0379
     16 C12        13.2651   -27.6093   -21.2036 C.ar       1          -0.1148
     17 C13        14.5284   -28.1593   -21.1455 C.ar       1          -0.1155
     18 C14        15.3293   -28.1823   -22.2738 C.ar       1          -0.1314
     19 C15        14.8700   -27.6547   -23.4679 C.ar       1          -0.1229
     20 C16        13.6067   -27.1069   -23.5431 C.ar       1          -0.1172
     21 H1          6.1598   -22.0911   -20.2751 H          1           0.1263
     22 H2          5.6321   -21.5526   -21.9051 H          1           0.0787
     23 H3          6.2210   -26.4082   -21.3397 H          1           0.1299
     24 H4          8.4681   -27.3853   -21.2126 H          1           0.1360
     25 H5         11.3146   -26.2057   -20.3949 H          1           0.1291
     26 H6         10.9563   -26.3698   -23.4321 H          1           0.1217
     27 H7         12.6414   -27.5914   -20.3221 H          1           0.1302
     28 H8         14.8936   -28.5728   -20.2171 H          1           0.1216
     29 H9         16.3181   -28.6137   -22.2220 H          1           0.1171
     30 H10        15.5010   -27.6759   -24.3442 H          1           0.1183
     31 H11        13.2477   -26.7000   -24.4769 H          1           0.1213
@<TRIPOS>BOND
     1    1    2 1
     2    2    3 2
     3    2    4 1
     4    4   12 ar
     5    4    5 ar
     6    5    9 ar
     7    5    6 1
     8    6    7 1
     9    7    8 1
    10    7   21 1
    11    7   22 1
    12    8    9 1
    13    9   10 ar
    14   10   11 ar
    15   10   23 1
    16   11   12 ar
    17   11   24 1
    18   12   13 1
    19   13   14 2
    20   13   25 1
    21   14   15 1
    22   14   26 1
    23   15   20 ar
    24   15   16 ar
    25   16   17 ar
    26   16   27 1
    27   17   18 ar
    28   17   28 1
    29   18   19 ar
    30   18   29 1
    31   19   20 ar
    32   19   30 1
    33   20   31 1
