GL5243106_0, 3
##########                 Name:          GL5243106_0
##########          Protonation:                  100
##########               SMILES:   CC(C)C[C@H](Cc1ccc2c(c1C(=O)[O-])OCO2)CNC(=O)c3ccc(cc3)N
##########            Long Name:   4-aminobenzoyl)amino]methyl]-4-methyl-pentyl]-1,3-benzodioxole-4-carboxylate
##########          FlexRecCode: 1
##########               Number:                  601
##########   Ligand Source File: /raid1/people/rgc/Examples/sampl4/screening/ligands/build_1//sampl4-hivint-00000
##########           GlobalRank: 75
##########                 Rank:                    1
##########               Setnum:                   48
##########             Matchnum:                 5155
##########                Cloud:                    1
##########        Electrostatic:           -44.912987
##########        Van der Waals:           -17.552193
##########  Ligand Polar Desolv:            26.692150
########## Ligand Apolar Desolv:            -1.506332
##########      Internal Energy:             0.000000
##########      Receptor Energy: 0.0
########## Receptor Desolvation:             0.000000
########## Receptor Hydrophobic:             0.000000
##########         Total Energy: -37.28
##########        Ligand Charge:            -1.000000
##########            Arbitrary:    +999.9990
##########     heavy atom count:   29
##########           pose count:    1
##########        Ligand Energy:             0.000000
# num electro vdwattr vdwrepu polsolv apolsol rdesolv rhydroe totalscore fullpol fullapo
#   1   -0.28   -0.07    0.00    0.04   -0.01    0.00    0.00      -0.32    0.81   -0.18
#   2   -0.13   -0.07    0.00    0.05   -0.01    0.00    0.00      -0.16    1.33   -0.18
#   3   -0.12   -0.04    0.00    0.06    0.00    0.00    0.00      -0.10    2.39   -0.17
#   4   -0.25   -0.17    0.00    0.09   -0.02    0.00    0.00      -0.34    0.98   -0.18
#   5   -1.06   -0.42    0.03    0.47   -0.03    0.00    0.00      -1.00    2.16   -0.12
#   6    0.97   -0.78    0.20   -0.80   -0.10    0.00    0.00      -0.50   -3.00   -0.38
#   7   -1.46   -1.63    0.65    3.53    0.57    0.00    0.00       1.66   13.24    2.13
#   8    0.75   -0.61    0.08   -1.86   -0.11    0.00    0.00      -1.75  -11.08   -0.65
#   9   -0.59   -0.23    0.01    1.80    0.05    0.00    0.00       1.02   15.80    0.41
#  10   -0.20   -0.58    0.10    0.63   -0.06    0.00    0.00      -0.11    3.97   -0.41
#  11   -0.03   -0.97    0.26    0.08   -0.10    0.00    0.00      -0.76    0.37   -0.44
#  12   -0.14   -0.68    0.10    0.33   -0.10    0.00    0.00      -0.49    1.57   -0.46
#  13    0.11   -0.27    0.01   -0.21   -0.08    0.00    0.00      -0.43   -1.79   -0.73
#  14   -0.22   -0.18    0.00    0.12    0.06    0.00    0.00      -0.21    1.70    0.90
#  15   -0.11   -0.19    0.01    0.15   -0.03    0.00    0.00      -0.18    1.97   -0.46
#  16   -0.01   -0.26    0.02    0.05   -0.04    0.00    0.00      -0.25    0.51   -0.46
#  17   -0.87   -1.31    0.43    0.47   -0.06    0.00    0.00      -1.34    1.39   -0.18
#  18   -0.96   -1.68    0.76    0.34   -0.08    0.00    0.00      -1.62    1.05   -0.25
#  19   -1.38   -1.17    0.25    0.19   -0.10    0.00    0.00      -2.21    0.68   -0.35
#  20   -1.40   -0.99    0.13    0.21   -0.14    0.00    0.00      -2.20    0.70   -0.47
#  21    0.24   -1.12    0.18   -0.12   -0.11    0.00    0.00      -0.93   -0.34   -0.33
#  22   -4.17   -1.28    0.23    2.04    0.22    0.00    0.00      -2.97    4.85    0.52
#  23    3.86   -1.76    1.08   -1.50    0.01    0.00    0.00       1.69   -3.11    0.02
#  24   -8.41   -1.34    0.19    4.23    0.21    0.00    0.00      -5.12    9.89    0.48
#  25    1.23   -1.47    0.47    0.23   -0.12    0.00    0.00       0.35    0.64   -0.33
#  26   -2.52   -1.81    0.93    1.85   -0.15    0.00    0.00      -1.70    4.89   -0.39
#  27   22.25   -2.30    0.68   -8.86   -0.05    0.00    0.00      11.71  -19.45   -0.11
#  28  -29.71   -2.82    3.26   13.71   -0.17    0.00    0.00     -15.74   33.42   -0.42
#  29  -33.27   -4.24    2.13   16.00   -0.21    0.00    0.00     -19.58   28.71   -0.37
#  30    0.14   -0.04    0.00   -0.02   -0.01    0.00    0.00       0.07   -0.38   -0.28
#  31    0.15   -0.02    0.00   -0.01   -0.01    0.00    0.00       0.11   -0.54   -0.28
#  32    0.06   -0.01    0.00   -0.01    0.00    0.00    0.00       0.03   -0.48   -0.28
#  33    0.11   -0.02    0.00   -0.02    0.00    0.00    0.00       0.06   -0.76   -0.12
#  34    0.03   -0.01    0.00   -0.02    0.00    0.00    0.00       0.00   -1.18   -0.28
#  35    0.06   -0.01    0.00    0.00    0.00    0.00    0.00       0.05    0.43   -0.20
#  36    0.03   -0.01    0.00   -0.01    0.00    0.00    0.00       0.00   -0.61   -0.28
#  37    0.07   -0.05    0.00   -0.04   -0.01    0.00    0.00      -0.03   -0.93   -0.22
#  38    0.25   -0.04    0.00   -0.04   -0.01    0.00    0.00       0.16   -1.11   -0.26
#  39    1.56   -0.09    0.00   -0.11   -0.01    0.00    0.00       1.36   -1.09   -0.10
#  40    1.07   -0.64    0.59   -0.57   -0.09    0.00    0.00       0.37   -1.78   -0.28
#  41    0.31   -0.09    0.00    0.07   -0.03    0.00    0.00       0.26    0.63   -0.28
#  42    0.95   -0.05    0.00   -2.04    0.11    0.00    0.00      -1.03   -6.61    0.36
#  43    0.16   -0.32    0.10   -0.35   -0.06    0.00    0.00      -0.45   -1.39   -0.22
#  44    0.07   -0.20    0.04   -0.17   -0.06    0.00    0.00      -0.32   -0.79   -0.28
#  45    0.09    0.00    0.00    0.00    0.02    0.00    0.00       0.11   -0.01    0.59
#  46    0.06    0.00    0.00    0.00    0.01    0.00    0.00       0.07   -0.18    0.59
#  47    0.05   -0.02    0.00   -0.02   -0.01    0.00    0.00       0.00   -1.09   -0.28
#  48    0.10   -0.03    0.00   -0.05   -0.01    0.00    0.00       0.01   -1.70   -0.27
#  49    1.96   -1.09    1.61    0.06   -0.10    0.00    0.00       2.44    0.15   -0.26
#  50    0.42   -0.43    0.12   -0.70   -0.08    0.00    0.00      -0.66   -2.25   -0.26
#  51    0.85   -0.19    0.02   -0.33   -0.05    0.00    0.00       0.31   -1.69   -0.28
#  52    0.96   -0.16    0.01   -0.35   -0.06    0.00    0.00       0.40   -1.72   -0.28
#  53    2.28   -0.71    0.34   -1.26   -0.15    0.00    0.00       0.49   -2.28   -0.28
#  54    1.18   -1.31    3.38   -0.67   -0.12    0.00    0.00       2.46   -1.61   -0.28

@<TRIPOS>MOLECULE
      GL5243106_0       100
   54    56     0     0     0



@<TRIPOS>ATOM
      1 C1          7.9123   -21.5382   -25.7443 C.3        1          -0.1411
      2 C2          6.9291   -20.8427   -24.8008 C.3        1          -0.1162
      3 C3          5.5037   -21.0218   -25.3271 C.3        1          -0.1539
      4 C4          7.0387   -21.4593   -23.4048 C.3        1          -0.1033
      5 C5          8.4641   -21.2801   -22.8786 C.3        1          -0.1218
      6 C6          8.7965   -19.7885   -22.8047 C.3        1           0.1304
      7 N1          7.8551   -19.1225   -21.9013 N.am       1          -0.7176
      8 C7          7.0680   -18.1295   -22.3607 C.2        1           0.5596
      9 O1          7.1394   -17.7864   -23.5251 O.2        1          -0.5492
     10 C8          6.1200   -17.4589   -21.4509 C.ar       1          -0.1898
     11 C9          5.6102   -18.1419   -20.3428 C.ar       1          -0.0338
     12 C10         4.7265   -17.5134   -19.4958 C.ar       1          -0.2073
     13 C11         4.3394   -16.1983   -19.7422 C.ar       1           0.2363
     14 N2          3.4468   -15.5663   -18.8835 N.pl3      1          -0.8721
     15 C12         4.8455   -15.5159   -20.8442 C.ar       1          -0.2100
     16 C13         5.7338   -16.1372   -21.6919 C.ar       1          -0.0097
     17 C14         8.5736   -21.8967   -21.4826 C.3        1          -0.0650
     18 C15         8.7365   -23.3900   -21.6044 C.ar       1          -0.0504
     19 C16         7.6260   -24.2040   -21.6313 C.ar       1          -0.1149
     20 C17         7.7661   -25.5782   -21.7430 C.ar       1          -0.1169
     21 C18         9.0239   -26.1476   -21.8296 C.ar       1           0.0147
     22 O2          9.4396   -27.4406   -21.9443 O.3        1          -0.3172
     23 C19        10.8163   -27.4629   -21.5383 C.3        1           0.2109
     24 O3         11.2479   -26.1435   -21.9038 O.3        1          -0.2991
     25 C20        10.1576   -25.3381   -21.8044 C.ar       1           0.0475
     26 C21        10.0165   -23.9494   -21.6962 C.ar       1          -0.0865
     27 C22        11.2065   -23.0836   -21.6742 C.2        1           0.5361
     28 O4         11.6611   -22.6420   -22.7207 O.co2      1          -0.6782
     29 O5         11.7410   -22.8056   -20.6095 O.co2      1          -0.6725
     30 H1          8.9278   -21.4106   -25.3694 H          1           0.0478
     31 H2          7.6754   -22.6009   -25.7970 H          1           0.0487
     32 H3          7.8343   -21.0988   -26.7387 H          1           0.0465
     33 H4          7.1661   -19.7800   -24.7480 H          1           0.0933
     34 H5          4.8032   -20.5262   -24.6548 H          1           0.0421
     35 H6          5.4256   -20.5822   -26.3214 H          1           0.0805
     36 H7          5.2667   -22.0843   -25.3799 H          1           0.0433
     37 H8          6.3382   -20.9638   -22.7327 H          1           0.0546
     38 H9          6.8017   -22.5220   -23.4575 H          1           0.0586
     39 H10         9.1645   -21.7756   -23.5506 H          1           0.1271
     40 H11         9.8121   -19.6607   -22.4297 H          1           0.0598
     41 H12         8.7185   -19.3492   -23.7992 H          1           0.0740
     42 H13         7.7981   -19.3962   -20.9725 H          1           0.3981
     43 H14         5.9096   -19.1619   -20.1519 H          1           0.1255
     44 H15         4.3320   -18.0408   -18.6398 H          1           0.1245
     45 H16         3.0940   -16.0412   -18.1147 H          1           0.3990
     46 H17         3.1767   -14.6505   -19.0538 H          1           0.3990
     47 H18         4.5436   -14.4962   -21.0322 H          1           0.1245
     48 H19         6.1292   -15.6054   -22.5448 H          1           0.1348
     49 H20         9.4379   -21.4779   -20.9671 H          1           0.0835
     50 H21         7.6697   -21.6749   -20.9154 H          1           0.0698
     51 H22         6.6399   -23.7688   -21.5643 H          1           0.1304
     52 H23         6.8889   -26.2079   -21.7624 H          1           0.1253
     53 H24        10.9037   -27.6182   -20.4630 H          1           0.1239
     54 H25        11.3731   -28.2219   -22.0879 H          1           0.0765
@<TRIPOS>BOND
     1    1    2 1
     2    1   30 1
     3    1   31 1
     4    1   32 1
     5    2    3 1
     6    2    4 1
     7    2   33 1
     8    3   34 1
     9    3   35 1
    10    3   36 1
    11    4    5 1
    12    4   37 1
    13    4   38 1
    14    5    6 1
    15    5   17 1
    16    5   39 1
    17    6    7 1
    18    6   40 1
    19    6   41 1
    20    7    8 am
    21    7   42 1
    22    8    9 2
    23    8   10 1
    24   10   16 ar
    25   10   11 ar
    26   11   12 ar
    27   11   43 1
    28   12   13 ar
    29   12   44 1
    30   13   14 1
    31   13   15 ar
    32   14   45 1
    33   14   46 1
    34   15   16 ar
    35   15   47 1
    36   16   48 1
    37   17   18 1
    38   17   49 1
    39   17   50 1
    40   18   26 ar
    41   18   19 ar
    42   19   20 ar
    43   19   51 1
    44   20   21 ar
    45   20   52 1
    46   21   25 ar
    47   21   22 1
    48   22   23 1
    49   23   24 1
    50   23   53 1
    51   23   54 1
    52   24   25 1
    53   25   26 ar
    54   26   27 1
    55   27   28 1
    56   27   29 2
