GL5243102_0, 3
##########                 Name:          GL5243102_0
##########          Protonation:                   86
##########               SMILES:   CC(C)C[C@H](Cc1ccc2c(c1C(=O)[O-])OCO2)CNC(=O)Cc3c[nH]cn3
##########            Long Name:   ol-4-yl)acetyl]amino]methyl]-4-methyl-pentyl]-1,3-benzodioxole-4-carboxylate
##########          FlexRecCode: 1
##########               Number:                  655
##########   Ligand Source File: /raid1/people/rgc/Examples/sampl4/screening/ligands/build_1//sampl4-hivint-00000
##########           GlobalRank: 47
##########                 Rank:                    1
##########               Setnum:                   29
##########             Matchnum:                 4295
##########                Cloud:                    1
##########        Electrostatic:           -46.655495
##########        Van der Waals:           -16.309845
##########  Ligand Polar Desolv:            24.664534
########## Ligand Apolar Desolv:            -1.707293
##########      Internal Energy:             0.000000
##########      Receptor Energy: 0.0
########## Receptor Desolvation:             0.000000
########## Receptor Hydrophobic:             0.000000
##########         Total Energy: -40.01
##########        Ligand Charge:            -1.000000
##########            Arbitrary:    +999.9990
##########     heavy atom count:   28
##########           pose count:    1
##########        Ligand Energy:             0.000000
# num electro vdwattr vdwrepu polsolv apolsol rdesolv rhydroe totalscore fullpol fullapo
#   1   -0.13   -0.04    0.00    0.05    0.00    0.00    0.00      -0.12    2.03   -0.17
#   2   -0.12   -0.06    0.00    0.04    0.00    0.00    0.00      -0.15    1.19   -0.14
#   3   -0.12   -0.06    0.00    0.03   -0.01    0.00    0.00      -0.15    0.97   -0.18
#   4   -0.16   -0.20    0.01    0.16   -0.02    0.00    0.00      -0.22    1.16   -0.17
#   5   -0.44   -0.20    0.01    0.20   -0.01    0.00    0.00      -0.45    1.60   -0.12
#   6    0.46   -0.16    0.01   -0.27   -0.04    0.00    0.00       0.01   -2.72   -0.37
#   7   -5.66   -0.23    0.01    1.15    0.15    0.00    0.00      -4.57   11.69    1.53
#   8    2.69   -0.17    0.00   -0.58   -0.05    0.00    0.00       1.90   -8.36   -0.66
#   9   -1.24   -0.11    0.00    0.71    0.02    0.00    0.00      -0.61   13.21    0.37
#  10   -0.37   -0.25    0.02    0.07   -0.04    0.00    0.00      -0.57    0.51   -0.27
#  11    0.15   -0.41    0.01    0.15   -0.11    0.00    0.00      -0.20    0.84   -0.64
#  12   -0.26   -0.27    0.01    0.02   -0.10    0.00    0.00      -0.60    0.24   -1.01
#  13   -2.68   -0.45    0.02    0.52    0.20    0.00    0.00      -2.39    3.15    1.22
#  14    1.07   -1.03    0.13   -0.42   -0.91    0.00    0.00      -1.15   -1.53   -3.33
#  15   -3.55   -0.82    0.05    2.14    0.53    0.00    0.00      -1.64    8.18    2.04
#  16   -0.82   -0.65    0.11    0.37   -0.05    0.00    0.00      -1.03    1.39   -0.18
#  17   -0.87   -0.93    0.11    0.35   -0.09    0.00    0.00      -1.43    1.26   -0.32
#  18   -1.12   -0.91    0.11    0.20   -0.10    0.00    0.00      -1.82    0.79   -0.39
#  19   -1.23   -1.27    0.28    0.20   -0.14    0.00    0.00      -2.16    0.68   -0.47
#  20    0.25   -1.54    0.74   -0.12   -0.11    0.00    0.00      -0.77   -0.36   -0.33
#  21   -4.68   -1.44    0.41    1.92    0.21    0.00    0.00      -3.58    4.78    0.52
#  22    3.48   -1.06    0.21   -1.31    0.01    0.00    0.00       1.34   -3.01    0.02
#  23   -7.87   -1.30    0.22    3.98    0.20    0.00    0.00      -4.76    9.71    0.48
#  24    1.12   -1.50    0.74    0.18   -0.11    0.00    0.00       0.44    0.56   -0.33
#  25   -2.21   -1.13    0.19    1.81   -0.14    0.00    0.00      -1.48    5.30   -0.40
#  26   20.48   -1.80    0.77   -7.69   -0.05    0.00    0.00      11.72  -19.33   -0.13
#  27  -26.09   -2.63    3.75   10.61   -0.14    0.00    0.00     -14.49   32.72   -0.42
#  28  -33.30   -2.85    1.27   14.15   -0.19    0.00    0.00     -20.91   28.71   -0.39
#  29    0.05   -0.01    0.00   -0.01    0.00    0.00    0.00       0.03   -0.49   -0.28
#  30    0.04   -0.01    0.00   -0.02    0.00    0.00    0.00       0.01   -1.04   -0.28
#  31    0.05    0.00    0.00    0.00    0.00    0.00    0.00       0.04   -0.08   -0.19
#  32    0.09   -0.01    0.00   -0.02    0.00    0.00    0.00       0.06   -0.97   -0.18
#  33    0.05   -0.03    0.00   -0.01   -0.01    0.00    0.00      -0.01   -0.42   -0.28
#  34    0.03   -0.01    0.00    0.00    0.00    0.00    0.00       0.02   -0.49   -0.28
#  35    0.04   -0.02    0.00   -0.01    0.00    0.00    0.00       0.01   -0.53   -0.28
#  36    0.18   -0.09    0.00   -0.13   -0.03    0.00    0.00      -0.07   -1.10   -0.28
#  37    0.10   -0.07    0.00   -0.05   -0.01    0.00    0.00      -0.04   -0.82   -0.22
#  38    0.28   -0.03    0.00   -0.02   -0.01    0.00    0.00       0.21   -0.73   -0.17
#  39    0.10   -0.02    0.00   -0.04   -0.01    0.00    0.00       0.04   -1.51   -0.28
#  40    0.18   -0.09    0.01    0.01   -0.03    0.00    0.00       0.08    0.11   -0.28
#  41    5.32   -0.01    0.00   -0.47    0.02    0.00    0.00       4.86   -6.10    0.31
#  42    0.93   -0.08    0.00   -0.09   -0.02    0.00    0.00       0.74   -1.27   -0.28
#  43    0.33   -0.14    0.03   -0.16   -0.04    0.00    0.00       0.02   -1.24   -0.28
#  44    0.58   -0.03    0.00   -0.03   -0.01    0.00    0.00       0.52   -1.01   -0.28
#  45    1.22   -0.01    0.00   -0.04    0.04    0.00    0.00       1.21   -0.66    0.60
#  46    0.79   -0.41    0.10   -0.37   -0.08    0.00    0.00       0.03   -1.22   -0.28
#  47    1.69   -0.28    0.07    0.09   -0.06    0.00    0.00       1.52    0.38   -0.25
#  48    0.51   -0.38    0.15   -0.56   -0.07    0.00    0.00      -0.35   -2.31   -0.28
#  49    0.57   -0.12    0.00   -0.26   -0.04    0.00    0.00       0.16   -1.90   -0.28
#  50    0.61   -0.32    0.14   -0.41   -0.06    0.00    0.00      -0.03   -1.83   -0.28
#  51    1.88   -0.63    0.40   -1.00   -0.13    0.00    0.00       0.53   -2.23   -0.28
#  52    0.93   -0.24    0.03   -0.40   -0.07    0.00    0.00       0.25   -1.60   -0.28

@<TRIPOS>MOLECULE
      GL5243102_0        86
   52    54     0     0     0



@<TRIPOS>ATOM
      1 C1          5.7125   -19.7800   -25.1390 C.3        1          -0.1588
      2 C2          7.0750   -19.1017   -25.2954 C.3        1          -0.1177
      3 C3          6.8788   -17.5916   -25.4440 C.3        1          -0.1427
      4 C4          7.9310   -19.3857   -24.0597 C.3        1          -0.1091
      5 C5          8.1273   -20.8957   -23.9111 C.3        1          -0.1059
      6 C6          8.8298   -21.4435   -25.1551 C.3        1           0.1295
      7 N1          9.0177   -22.8894   -25.0129 N.am       1          -0.7279
      8 C7          8.0677   -23.7387   -25.4518 C.2        1           0.5103
      9 O1          7.0573   -23.3060   -25.9644 O.2        1          -0.5255
     10 C8          8.2610   -25.2262   -25.3056 C.3        1          -0.0590
     11 C9          9.4998   -25.6475   -26.0533 C.2        1           0.0224
     12 C10        10.0006   -25.0535   -27.1533 C.2        1          -0.0528
     13 N2         11.1255   -25.7509   -27.5025 N.pl3      1          -0.5727
     14 C11        11.2730   -26.7473   -26.6032 C.2        1           0.1791
     15 N3         10.2998   -26.6764   -25.7367 N.2        1          -0.4646
     16 C12         8.9834   -21.1797   -22.6753 C.3        1          -0.0648
     17 C13         8.7804   -22.6085   -22.2411 C.ar       1          -0.0540
     18 C14         7.5242   -23.0499   -21.8897 C.ar       1          -0.1147
     19 C15         7.3288   -24.3619   -21.4899 C.ar       1          -0.1167
     20 C16         8.3939   -25.2450   -21.4386 C.ar       1           0.0149
     21 O2          8.4609   -26.5622   -21.0851 O.3        1          -0.3174
     22 C17         9.7123   -27.0380   -21.6149 C.3        1           0.2108
     23 O3         10.5358   -25.8576   -21.6587 O.3        1          -0.2993
     24 C18         9.6707   -24.8146   -21.7908 C.ar       1           0.0457
     25 C19         9.8674   -23.4890   -22.2003 C.ar       1          -0.0856
     26 C20        11.2109   -23.0237   -22.5805 C.2        1           0.5354
     27 O4         11.5814   -23.1086   -23.7433 O.co2      1          -0.6799
     28 O5         11.9572   -22.5520   -21.7337 O.co2      1          -0.6765
     29 H1          5.8523   -20.8558   -25.0331 H          1           0.0571
     30 H2          5.2119   -19.3897   -24.2529 H          1           0.0497
     31 H3          5.1027   -19.5777   -26.0196 H          1           0.0674
     32 H4          7.5755   -19.4920   -26.1816 H          1           0.0850
     33 H5          7.8496   -17.1084   -25.5555 H          1           0.0513
     34 H6          6.2690   -17.3892   -26.3245 H          1           0.0503
     35 H7          6.3784   -17.2013   -24.5578 H          1           0.0494
     36 H8          8.9016   -18.9023   -24.1711 H          1           0.0584
     37 H9          7.4305   -18.9954   -23.1735 H          1           0.0695
     38 H10         7.1566   -21.3790   -23.7997 H          1           0.1093
     39 H11         8.2198   -21.2411   -26.0356 H          1           0.0668
     40 H12         9.8003   -20.9601   -25.2666 H          1           0.0650
     41 H13         9.8259   -23.2355   -24.6030 H          1           0.4038
     42 H14         8.3708   -25.4763   -24.2504 H          1           0.1039
     43 H15         7.3952   -25.7470   -25.7143 H          1           0.1021
     44 H16         9.5929   -24.1926   -27.6623 H          1           0.1761
     45 H17        11.7079   -25.5641   -28.2554 H          1           0.4180
     46 H18        12.0671   -27.4795   -26.5994 H          1           0.2052
     47 H19        10.0342   -21.0191   -22.9165 H          1           0.0828
     48 H20         8.6894   -20.5094   -21.8676 H          1           0.0703
     49 H21         6.6864   -22.3692   -21.9257 H          1           0.1305
     50 H22         6.3395   -24.6977   -21.2160 H          1           0.1252
     51 H23        10.1492   -27.7854   -20.9526 H          1           0.1240
     52 H24         9.5741   -27.4460   -22.6161 H          1           0.0764
@<TRIPOS>BOND
     1    1    2 1
     2    1   29 1
     3    1   30 1
     4    1   31 1
     5    2    3 1
     6    2    4 1
     7    2   32 1
     8    3   33 1
     9    3   34 1
    10    3   35 1
    11    4    5 1
    12    4   36 1
    13    4   37 1
    14    5    6 1
    15    5   16 1
    16    5   38 1
    17    6    7 1
    18    6   39 1
    19    6   40 1
    20    7    8 am
    21    7   41 1
    22    8    9 2
    23    8   10 1
    24   10   11 1
    25   10   42 1
    26   10   43 1
    27   11   15 1
    28   11   12 2
    29   12   13 1
    30   12   44 1
    31   13   14 1
    32   13   45 1
    33   14   15 2
    34   14   46 1
    35   16   17 1
    36   16   47 1
    37   16   48 1
    38   17   25 ar
    39   17   18 ar
    40   18   19 ar
    41   18   49 1
    42   19   20 ar
    43   19   50 1
    44   20   24 ar
    45   20   21 1
    46   21   22 1
    47   22   23 1
    48   22   51 1
    49   22   52 1
    50   23   24 1
    51   24   25 ar
    52   25   26 1
    53   26   27 1
    54   26   28 2
