GL5243100_0, 3
##########                 Name:          GL5243100_0
##########          Protonation:                  100
##########               SMILES:   CC(C)C[C@H](Cc1ccc2c(c1C(=O)[O-])OCO2)CNC(=O)Cc3cc[nH]c3
##########            Long Name:   2-(1H-pyrrol-3-yl)acetyl]amino]methyl]pentyl]-1,3-benzodioxole-4-carboxylate
##########          FlexRecCode: 1
##########               Number:                  518
##########   Ligand Source File: /raid1/people/rgc/Examples/sampl4/screening/ligands/build_1//sampl4-hivint-00000
##########           GlobalRank: 37
##########                 Rank:                    1
##########               Setnum:                   40
##########             Matchnum:                11150
##########                Cloud:                    1
##########        Electrostatic:           -47.110069
##########        Van der Waals:           -16.810852
##########  Ligand Polar Desolv:            24.652411
########## Ligand Apolar Desolv:            -1.607776
##########      Internal Energy:             0.000000
##########      Receptor Energy: 0.0
########## Receptor Desolvation:             0.000000
########## Receptor Hydrophobic:             0.000000
##########         Total Energy: -40.88
##########        Ligand Charge:            -1.000000
##########            Arbitrary:    +999.9990
##########     heavy atom count:   28
##########           pose count:    1
##########        Ligand Energy:             0.000000
# num electro vdwattr vdwrepu polsolv apolsol rdesolv rhydroe totalscore fullpol fullapo
#   1   -0.13   -0.03    0.00    0.02    0.00    0.00    0.00      -0.15    0.84   -0.18
#   2   -0.15   -0.07    0.00    0.07   -0.01    0.00    0.00      -0.16    1.37   -0.18
#   3   -0.17   -0.07    0.00    0.12   -0.01    0.00    0.00      -0.13    2.46   -0.18
#   4   -0.23   -0.21    0.01    0.13   -0.03    0.00    0.00      -0.33    0.90   -0.18
#   5   -0.77   -0.20    0.01    0.25   -0.01    0.00    0.00      -0.72    2.07   -0.12
#   6    0.61   -0.21    0.02   -0.34   -0.04    0.00    0.00       0.04   -2.86   -0.38
#   7   -7.38   -0.27    0.01    1.33    0.24    0.00    0.00      -6.08   11.78    2.14
#   8    3.24   -0.25    0.01   -0.83   -0.06    0.00    0.00       2.10   -8.62   -0.66
#   9   -1.68   -0.16    0.00    1.10    0.03    0.00    0.00      -0.71   13.90    0.38
#  10   -0.44   -0.44    0.05    0.13   -0.06    0.00    0.00      -0.76    0.59   -0.27
#  11   -0.94   -0.91    0.08    0.76   -0.09    0.00    0.00      -1.10    2.83   -0.33
#  12   -0.02   -1.81    0.88    0.00   -0.31    0.00    0.00      -1.25    0.01   -1.01
#  13   -1.78   -3.48    2.83    1.49    0.42    0.00    0.00      -0.52    4.20    1.19
#  14   -0.12   -2.42    1.04    0.03   -0.37    0.00    0.00      -1.83    0.08   -1.01
#  15   -1.93   -1.12    0.15    1.16   -0.15    0.00    0.00      -1.89    3.84   -0.51
#  16   -1.09   -0.50    0.06    0.36   -0.05    0.00    0.00      -1.22    1.38   -0.18
#  17   -0.89   -0.68    0.05    0.27   -0.06    0.00    0.00      -1.32    1.02   -0.23
#  18   -1.25   -0.59    0.04    0.14   -0.07    0.00    0.00      -1.74    0.69   -0.36
#  19   -1.19   -0.83    0.09    0.19   -0.12    0.00    0.00      -1.87    0.72   -0.47
#  20    0.21   -1.17    0.25   -0.10   -0.11    0.00    0.00      -0.91   -0.31   -0.33
#  21   -3.98   -1.40    0.43    2.00    0.21    0.00    0.00      -2.73    4.87    0.52
#  22    2.87   -1.46    0.61   -1.42    0.01    0.00    0.00       0.61   -3.12    0.02
#  23   -6.74   -1.43    0.22    4.37    0.21    0.00    0.00      -3.36    9.84    0.48
#  24    1.09   -1.32    0.42    0.21   -0.11    0.00    0.00       0.29    0.63   -0.33
#  25   -2.32   -0.99    0.13    1.57   -0.13    0.00    0.00      -1.73    4.80   -0.40
#  26   21.98   -1.81    0.75   -7.56   -0.05    0.00    0.00      13.31  -19.27   -0.12
#  27  -28.77   -1.92    1.75   10.62   -0.14    0.00    0.00     -18.45   32.90   -0.42
#  28  -35.92   -3.79    4.53   13.82   -0.18    0.00    0.00     -21.53   28.43   -0.36
#  29    0.05   -0.01    0.00   -0.01    0.00    0.00    0.00       0.03   -0.36   -0.28
#  30    0.04   -0.01    0.00   -0.01    0.00    0.00    0.00       0.02   -0.56   -0.28
#  31    0.04   -0.01    0.00    0.00    0.00    0.00    0.00       0.02   -0.50   -0.28
#  32    0.13   -0.02    0.00   -0.02    0.00    0.00    0.00       0.10   -0.74   -0.11
#  33    0.10   -0.04    0.00    0.01   -0.01    0.00    0.00       0.07    0.36   -0.19
#  34    0.04   -0.01    0.00   -0.01    0.00    0.00    0.00       0.02   -0.57   -0.28
#  35    0.04   -0.02    0.00   -0.02   -0.01    0.00    0.00      -0.01   -1.19   -0.28
#  36    0.19   -0.13    0.02   -0.14   -0.03    0.00    0.00      -0.09   -0.93   -0.22
#  37    0.12   -0.06    0.00   -0.06   -0.01    0.00    0.00      -0.01   -1.06   -0.26
#  38    0.59   -0.03    0.00   -0.03    0.00    0.00    0.00       0.53   -0.91   -0.11
#  39    0.16   -0.03    0.00   -0.05   -0.01    0.00    0.00       0.08   -1.64   -0.28
#  40    0.24   -0.17    0.08    0.10   -0.04    0.00    0.00       0.22    0.74   -0.28
#  41    6.65   -0.01    0.00   -0.49    0.04    0.00    0.00       6.20   -5.80    0.49
#  42    0.85   -0.12    0.01   -0.15   -0.03    0.00    0.00       0.56   -1.27   -0.28
#  43    0.37   -0.26    0.08   -0.26   -0.06    0.00    0.00      -0.12   -1.27   -0.28
#  44    0.44   -0.38    0.27   -0.33   -0.07    0.00    0.00      -0.07   -1.35   -0.28
#  45    0.88   -0.09    0.01   -0.60    0.22    0.00    0.00       0.41   -1.65    0.59
#  46    0.69   -0.62    0.27   -0.54   -0.10    0.00    0.00      -0.30   -1.43   -0.28
#  47    2.31   -0.16    0.01   -0.26   -0.04    0.00    0.00       1.86   -1.72   -0.28
#  48    2.13   -0.30    0.16    0.04   -0.07    0.00    0.00       1.96    0.16   -0.26
#  49    1.00   -0.22    0.04   -0.43   -0.05    0.00    0.00       0.34   -2.19   -0.26
#  50    0.78   -0.07    0.00   -0.10   -0.02    0.00    0.00       0.59   -1.67   -0.28
#  51    0.69   -0.16    0.02   -0.28   -0.05    0.00    0.00       0.22   -1.73   -0.28
#  52    1.48   -1.09    1.59   -1.09   -0.13    0.00    0.00       0.77   -2.27   -0.28
#  53    0.74   -0.40    0.15   -0.54   -0.09    0.00    0.00      -0.15   -1.61   -0.28

@<TRIPOS>MOLECULE
      GL5243100_0       100
   53    55     0     0     0



@<TRIPOS>ATOM
      1 C1          6.8149   -20.5360   -26.2988 C.3        1          -0.1408
      2 C2          8.2476   -19.9995   -26.3130 C.3        1          -0.1167
      3 C3          8.2306   -18.5087   -26.6567 C.3        1          -0.1550
      4 C4          8.8803   -20.1976   -24.9341 C.3        1          -0.1018
      5 C5          8.8975   -21.6885   -24.5904 C.3        1          -0.1203
      6 C6          9.7147   -22.4445   -25.6398 C.3        1           0.1310
      7 N1          9.7312   -23.8719   -25.3106 N.am       1          -0.7248
      8 C7          8.7740   -24.6867   -25.7966 C.2        1           0.5098
      9 O1          7.8988   -24.2382   -26.5065 O.2        1          -0.5372
     10 C8          8.7911   -26.1550   -25.4581 C.3        1          -0.0679
     11 C9         10.0763   -26.7690   -25.9503 C.2        1          -0.1447
     12 C10        10.2846   -27.3194   -27.1637 C.2        1          -0.0045
     13 N2         11.5738   -27.7599   -27.2163 N.pl3      1          -0.5621
     14 C11        12.1797   -27.4839   -26.0264 C.2        1          -0.0220
     15 C12        11.2828   -26.8682   -25.2295 C.2        1          -0.1819
     16 C13         9.5303   -21.8865   -23.2114 C.3        1          -0.0659
     17 C14         9.1211   -23.2275   -22.6589 C.ar       1          -0.0491
     18 C15         7.7885   -23.5144   -22.4628 C.ar       1          -0.1159
     19 C16         7.4038   -24.7448   -21.9557 C.ar       1          -0.1164
     20 C17         8.3541   -25.7010   -21.6400 C.ar       1           0.0141
     21 O2          8.2338   -26.9645   -21.1365 O.3        1          -0.3173
     22 C18         9.4941   -27.6063   -21.4067 C.3        1           0.2110
     23 O3         10.4313   -26.5141   -21.4510 O.3        1          -0.2991
     24 C19         9.7059   -25.4269   -21.8324 C.ar       1           0.0481
     25 C20        10.0948   -24.1843   -22.3503 C.ar       1          -0.0871
     26 C21        11.5199   -23.8847   -22.5635 C.2        1           0.5366
     27 O4         12.0458   -24.1452   -23.6369 O.co2      1          -0.6783
     28 O5         12.1785   -23.3751   -21.6672 O.co2      1          -0.6729
     29 H1          6.8271   -21.5981   -26.0539 H          1           0.0474
     30 H2          6.2326   -19.9974   -25.5511 H          1           0.0479
     31 H3          6.3642   -20.3948   -27.2811 H          1           0.0464
     32 H4          8.8299   -20.5380   -27.0607 H          1           0.0929
     33 H5          9.2512   -18.1264   -26.6668 H          1           0.0840
     34 H6          7.7799   -18.3674   -27.6391 H          1           0.0419
     35 H7          7.6483   -17.9700   -25.9090 H          1           0.0421
     36 H8          9.9009   -19.8154   -24.9444 H          1           0.0559
     37 H9          8.2982   -19.6591   -24.1864 H          1           0.0570
     38 H10         7.8768   -22.0707   -24.5801 H          1           0.1240
     39 H11         9.2641   -22.3033   -26.6222 H          1           0.0577
     40 H12        10.7355   -22.0621   -25.6501 H          1           0.0703
     41 H13        10.4312   -24.2306   -24.7429 H          1           0.3990
     42 H14         8.7192   -26.2797   -24.3776 H          1           0.0983
     43 H15         7.9457   -26.6484   -25.9378 H          1           0.0924
     44 H16         9.5558   -27.3981   -27.9568 H          1           0.1588
     45 H17        11.9909   -28.1979   -27.9747 H          1           0.4117
     46 H18        13.2028   -27.7143   -25.7684 H          1           0.1606
     47 H19        11.4568   -26.5177   -24.2229 H          1           0.1335
     48 H20        10.6159   -21.8462   -23.3007 H          1           0.0846
     49 H21         9.1914   -21.0980   -22.5395 H          1           0.0690
     50 H22         7.0390   -22.7755   -22.7053 H          1           0.1302
     51 H23         6.3560   -24.9596   -21.8055 H          1           0.1252
     52 H24         9.7508   -28.2991   -20.6053 H          1           0.1238
     53 H25         9.4628   -28.1233   -22.3658 H          1           0.0767
@<TRIPOS>BOND
     1    1    2 1
     2    1   29 1
     3    1   30 1
     4    1   31 1
     5    2    3 1
     6    2    4 1
     7    2   32 1
     8    3   33 1
     9    3   34 1
    10    3   35 1
    11    4    5 1
    12    4   36 1
    13    4   37 1
    14    5    6 1
    15    5   16 1
    16    5   38 1
    17    6    7 1
    18    6   39 1
    19    6   40 1
    20    7    8 am
    21    7   41 1
    22    8    9 2
    23    8   10 1
    24   10   11 1
    25   10   42 1
    26   10   43 1
    27   11   15 1
    28   11   12 2
    29   12   13 1
    30   12   44 1
    31   13   14 1
    32   13   45 1
    33   14   15 2
    34   14   46 1
    35   15   47 1
    36   16   17 1
    37   16   48 1
    38   16   49 1
    39   17   25 ar
    40   17   18 ar
    41   18   19 ar
    42   18   50 1
    43   19   20 ar
    44   19   51 1
    45   20   24 ar
    46   20   21 1
    47   21   22 1
    48   22   23 1
    49   22   52 1
    50   22   53 1
    51   23   24 1
    52   24   25 ar
    53   25   26 1
    54   26   27 1
    55   26   28 2
