AVX17556_3, 3
##########                 Name:           AVX17556_0
##########          Protonation:                  100
##########               SMILES:   c1ccc2c(c1)C[C@H]([C@@H]2Cc3ccc4c(c3C(=O)[O-])OCO4)NC(=O)CCCC[NH3+]
##########            Long Name:   (5-azaniumylpentanoylamino)indan-1-yl]methyl]-1,3-benzodioxole-4-carboxylate
##########          FlexRecCode: 1
##########               Number:                  179
##########   Ligand Source File: /raid1/people/rgc/Examples/sampl4/screening/ligands/build_1//sampl4-hivint-00000
##########           GlobalRank: 77
##########                 Rank:                    1
##########               Setnum:                   10
##########             Matchnum:                16939
##########                Cloud:                    1
##########        Electrostatic:           -40.942471
##########        Van der Waals:           -15.859828
##########  Ligand Polar Desolv:            22.043674
########## Ligand Apolar Desolv:            -2.413181
##########      Internal Energy:             0.000000
##########      Receptor Energy: 0.0
########## Receptor Desolvation:             0.000000
########## Receptor Hydrophobic:             0.000000
##########         Total Energy: -37.17
##########        Ligand Charge:             0.000000
##########            Arbitrary:    +999.9990
##########     heavy atom count:   30
##########           pose count:    1
##########        Ligand Energy:             0.000000
# num electro vdwattr vdwrepu polsolv apolsol rdesolv rhydroe totalscore fullpol fullapo
#   1   -1.63   -0.21    0.02   -2.02    0.09    0.00    0.00      -3.75  -19.75    0.86
#   2    1.39   -0.01    0.00    1.72    0.07    0.00    0.00       3.17   15.20    0.58
#   3    0.88    0.00    0.00    0.67    0.03    0.00    0.00       1.57   15.43    0.58
#   4    1.07    0.00    0.00    0.95    0.04    0.00    0.00       2.05   16.17    0.60
#   5   -0.03   -0.08    0.00    0.04   -0.03    0.00    0.00      -0.09    0.68   -0.49
#   6   -0.41   -0.07    0.00   -0.13   -0.01    0.00    0.00      -0.62   -2.95   -0.24
#   7   -0.14   -0.10    0.00   -0.08   -0.01    0.00    0.00      -0.32   -1.13   -0.19
#   8   -0.11   -0.09    0.00   -0.05   -0.02    0.00    0.00      -0.27   -0.85   -0.24
#   9    1.33   -0.16    0.00   -0.02   -0.04    0.00    0.00       1.11   -0.34   -0.66
#  10   -2.30   -0.24    0.01    0.21    0.04    0.00    0.00      -2.28    1.84    0.37
#  11   -1.56   -0.14    0.00    0.16    0.10    0.00    0.00      -1.44    3.14    1.96
#  12    0.44   -0.25    0.01   -0.19   -0.04    0.00    0.00      -0.04   -1.22   -0.23
#  13   -0.10   -0.35    0.02    0.07   -0.05    0.00    0.00      -0.41    0.36   -0.27
#  14   -0.16   -0.57    0.04    0.17   -0.08    0.00    0.00      -0.60    0.87   -0.43
#  15   -0.14   -0.49    0.04    0.09   -0.08    0.00    0.00      -0.56    0.57   -0.47
#  16   -0.17   -0.77    0.15    0.12   -0.09    0.00    0.00      -0.75    0.66   -0.47
#  17   -0.42   -1.65    0.72    0.36   -0.13    0.00    0.00      -1.13    1.29   -0.47
#  18   -0.62   -1.79    0.92    0.59   -0.13    0.00    0.00      -1.04    2.01   -0.45
#  19   -0.14   -0.88    0.13    0.36   -0.09    0.00    0.00      -0.62    1.53   -0.39
#  20   -0.24   -0.46    0.03    0.06   -0.03    0.00    0.00      -0.64    0.27   -0.13
#  21   -0.98   -2.05    1.39    0.34   -0.06    0.00    0.00      -1.36    0.92   -0.17
#  22   -0.63   -3.18    5.29    0.10   -0.11    0.00    0.00       1.47    0.28   -0.31
#  23   -1.94   -2.40    2.06    0.23   -0.16    0.00    0.00      -2.21    0.66   -0.45
#  24   -1.56   -1.72    0.65    0.02   -0.18    0.00    0.00      -2.78    0.06   -0.47
#  25   -0.16   -1.59    0.41   -0.09   -0.13    0.00    0.00      -1.56   -0.21   -0.33
#  26   -4.96   -1.98    0.87    0.62    0.24    0.00    0.00      -5.21    1.32    0.52
#  27    4.18   -1.41    0.61   -0.38    0.01    0.00    0.00       3.01   -0.86    0.02
#  28   -9.13   -1.77    0.67    2.51    0.15    0.00    0.00      -7.57    5.74    0.34
#  29    2.16   -1.80    0.66   -0.21   -0.13    0.00    0.00       0.68   -0.51   -0.32
#  30   -3.72   -2.37    2.23    1.49   -0.16    0.00    0.00      -2.54    3.73   -0.41
#  31   20.91   -2.26    0.66   -6.20   -0.07    0.00    0.00      13.03  -13.75   -0.16
#  32  -25.01   -2.06    1.44    8.21   -0.11    0.00    0.00     -17.53   21.03   -0.29
#  33  -33.07   -4.04    2.44   14.01   -0.31    0.00    0.00     -20.97   25.37   -0.56
#  34    0.22   -0.01    0.00    0.06   -0.01    0.00    0.00       0.27    3.51   -0.28
#  35    0.61   -0.03    0.00    0.10   -0.01    0.00    0.00       0.67    3.23   -0.28
#  36    0.43   -0.03    0.00    0.06   -0.01    0.00    0.00       0.45    1.95   -0.28
#  37    0.11   -0.01    0.00    0.04    0.00    0.00    0.00       0.14    2.35   -0.28
#  38    0.05   -0.02    0.00    0.01   -0.01    0.00    0.00       0.04    0.60   -0.28
#  39    0.16   -0.05    0.00    0.03   -0.02    0.00    0.00       0.12    0.45   -0.28
#  40    0.06   -0.01    0.00    0.01    0.00    0.00    0.00       0.05    0.54   -0.28
#  41    0.06   -0.04    0.00    0.05   -0.01    0.00    0.00       0.06    1.03   -0.28
#  42    0.44    0.00    0.00   -0.05    0.01    0.00    0.00       0.40   -2.30    0.57
#  43    0.43   -0.10    0.00   -0.07   -0.03    0.00    0.00       0.23   -0.65   -0.25
#  44    0.06   -0.05    0.00   -0.02   -0.01    0.00    0.00      -0.01   -0.41   -0.28
#  45    0.08   -0.30    0.10   -0.07   -0.06    0.00    0.00      -0.24   -0.33   -0.28
#  46    0.10   -0.05    0.00   -0.01   -0.01    0.00    0.00       0.03   -0.27   -0.28
#  47    0.13   -0.09    0.01   -0.03   -0.02    0.00    0.00      -0.01   -0.35   -0.28
#  48    0.75   -0.40    0.16   -0.32   -0.08    0.00    0.00       0.11   -1.09   -0.28
#  49    2.16   -0.43    0.20   -0.42   -0.08    0.00    0.00       1.43   -1.41   -0.27
#  50    1.17   -0.08    0.00   -0.04   -0.02    0.00    0.00       1.03   -0.59   -0.22
#  51    2.61   -1.32    2.40   -0.32   -0.08    0.00    0.00       3.29   -0.78   -0.20
#  52    0.59   -0.99    1.06   -0.41   -0.11    0.00    0.00       0.14   -1.02   -0.27
#  53    1.01   -0.47    0.21   -0.21   -0.09    0.00    0.00       0.46   -0.67   -0.28
#  54    1.27   -0.28    0.06    0.06   -0.09    0.00    0.00       1.01    0.19   -0.28
#  55    2.39   -0.85    1.24   -0.10   -0.11    0.00    0.00       2.56   -0.24   -0.28
#  56    1.12   -0.32    0.08   -0.02   -0.07    0.00    0.00       0.80   -0.10   -0.28

@<TRIPOS>MOLECULE
       AVX17556_0       100
   56    59     0     0     0



@<TRIPOS>ATOM
      1 N1         10.6140   -22.3338   -27.2462 N.4        1          -0.6382
      2 H1         10.8281   -22.3217   -26.2602 H          1           0.4353
      3 H2         10.3355   -21.4099   -27.5412 H          1           0.4343
      4 H3         11.4310   -22.6203   -27.7642 H          1           0.4367
      5 C1          9.5182   -23.2791   -27.4977 C.3        1          -0.0090
      6 C2          8.2793   -22.8446   -26.7120 C.3        1          -0.1538
      7 C3          7.1379   -23.8294   -26.9740 C.3        1          -0.0999
      8 C4          5.8991   -23.3949   -26.1883 C.3        1          -0.1454
      9 C5          6.2189   -23.3769   -24.7158 C.2        1           0.5168
     10 O1          6.5762   -24.3941   -24.1604 O.2        1          -0.5466
     11 N2          6.1079   -22.2303   -24.0160 N.am       1          -0.7076
     12 C6          6.4188   -22.2129   -22.5845 C.3        1           0.1458
     13 C7          5.6652   -21.0864   -21.8691 C.3        1          -0.0867
     14 C8          6.5406   -19.8706   -22.0433 C.ar       1          -0.1071
     15 C9          6.2473   -18.5196   -21.9703 C.ar       1          -0.1118
     16 C10         7.2417   -17.5821   -22.1723 C.ar       1          -0.1261
     17 C11         8.5325   -17.9934   -22.4475 C.ar       1          -0.1215
     18 C12         8.8264   -19.3412   -22.5203 C.ar       1          -0.0882
     19 C13         7.8306   -20.2817   -22.3184 C.ar       1          -0.0658
     20 C14         7.8710   -21.7893   -22.3395 C.3        1          -0.0341
     21 C15         8.3641   -22.3283   -20.9953 C.3        1          -0.0671
     22 C16         8.8076   -23.7591   -21.1600 C.ar       1          -0.0292
     23 C17         7.9053   -24.7846   -20.9848 C.ar       1          -0.1276
     24 C18         8.3046   -26.1027   -21.1348 C.ar       1          -0.1027
     25 C19         9.6154   -26.4049   -21.4625 C.ar       1          -0.0081
     26 O2         10.2455   -27.5996   -21.6630 O.3        1          -0.3208
     27 C20        11.4605   -27.2789   -22.3660 C.3        1           0.2059
     28 O3         11.7465   -25.9287   -21.9556 O.3        1          -0.2754
     29 C21        10.5404   -25.3797   -21.6432 C.ar       1           0.0746
     30 C22        10.1353   -24.0462   -21.4966 C.ar       1          -0.1204
     31 C23        11.1021   -22.9536   -21.6905 C.2        1           0.5183
     32 O4         11.2520   -22.4590   -22.7994 O.co2      1          -0.6674
     33 O5         11.7559   -22.5401   -20.7428 O.co2      1          -0.6711
     34 H4          9.2869   -23.2922   -28.5627 H          1           0.1345
     35 H5          9.8190   -24.2772   -27.1790 H          1           0.1352
     36 H6          8.5107   -22.8316   -25.6469 H          1           0.0891
     37 H7          7.9785   -21.8467   -27.0306 H          1           0.0878
     38 H8          6.9066   -23.8424   -28.0391 H          1           0.0812
     39 H9          7.4388   -24.8274   -26.6553 H          1           0.0831
     40 H10         5.5982   -22.3969   -26.5069 H          1           0.0958
     41 H11         5.0859   -24.0965   -26.3750 H          1           0.0940
     42 H12         5.8221   -21.4168   -24.4603 H          1           0.4031
     43 H13         6.2088   -23.1797   -22.1271 H          1           0.1027
     44 H14         4.6930   -20.9245   -22.3344 H          1           0.0779
     45 H15         5.5467   -21.3207   -20.8112 H          1           0.0740
     46 H16         5.2390   -18.1979   -21.7554 H          1           0.1136
     47 H17         7.0106   -16.5286   -22.1156 H          1           0.1190
     48 H18         9.3107   -17.2614   -22.6060 H          1           0.1216
     49 H19         9.8349   -19.6619   -22.7357 H          1           0.1311
     50 H20         8.5109   -22.1408   -23.1487 H          1           0.1081
     51 H21         9.2032   -21.7256   -20.6478 H          1           0.1216
     52 H22         7.5557   -22.2802   -20.2658 H          1           0.0527
     53 H23         6.8804   -24.5600   -20.7287 H          1           0.1256
     54 H24         7.5889   -26.8994   -20.9951 H          1           0.1199
     55 H25        12.2655   -27.9494   -22.0651 H          1           0.1230
     56 H26        11.3036   -27.3266   -23.4436 H          1           0.0696
@<TRIPOS>BOND
     1    1    2 1
     2    1    3 1
     3    1    4 1
     4    1    5 1
     5    5    6 1
     6    5   34 1
     7    5   35 1
     8    6    7 1
     9    6   36 1
    10    6   37 1
    11    7    8 1
    12    7   38 1
    13    7   39 1
    14    8    9 1
    15    8   40 1
    16    8   41 1
    17    9   10 2
    18    9   11 am
    19   11   12 1
    20   11   42 1
    21   12   20 1
    22   12   13 1
    23   12   43 1
    24   13   14 1
    25   13   44 1
    26   13   45 1
    27   14   19 ar
    28   14   15 ar
    29   15   16 ar
    30   15   46 1
    31   16   17 ar
    32   16   47 1
    33   17   18 ar
    34   17   48 1
    35   18   19 ar
    36   18   49 1
    37   19   20 1
    38   20   21 1
    39   20   50 1
    40   21   22 1
    41   21   51 1
    42   21   52 1
    43   22   30 ar
    44   22   23 ar
    45   23   24 ar
    46   23   53 1
    47   24   25 ar
    48   24   54 1
    49   25   29 ar
    50   25   26 1
    51   26   27 1
    52   27   28 1
    53   27   55 1
    54   27   56 1
    55   28   29 1
    56   29   30 ar
    57   30   31 1
    58   31   32 1
    59   31   33 2
