GL5243104_0, 3
##########                 Name:          GL5243104_0
##########          Protonation:                  100
##########               SMILES:   CC(C)C[C@@H](Cc1ccc2c(c1C(=O)[O-])OCO2)CNC(=O)c3ccncc3
##########            Long Name:   l-2-[(pyridine-4-carbonylamino)methyl]pentyl]-1,3-benzodioxole-4-carboxylate
##########          FlexRecCode: 1
##########               Number:                   44
##########   Ligand Source File: /raid1/people/rgc/Examples/sampl4/screening/ligands/build_1//sampl4-hivint-00000
##########           GlobalRank: 50
##########                 Rank:                    1
##########               Setnum:                   10
##########             Matchnum:                13819
##########                Cloud:                    1
##########        Electrostatic:           -43.540482
##########        Van der Waals:           -16.387791
##########  Ligand Polar Desolv:            21.718180
########## Ligand Apolar Desolv:            -1.431421
##########      Internal Energy:             0.000000
##########      Receptor Energy: 0.0
########## Receptor Desolvation:             0.000000
########## Receptor Hydrophobic:             0.000000
##########         Total Energy: -39.64
##########        Ligand Charge:            -1.000000
##########            Arbitrary:    +999.9990
##########     heavy atom count:   28
##########           pose count:    1
##########        Ligand Energy:             0.000000
# num electro vdwattr vdwrepu polsolv apolsol rdesolv rhydroe totalscore fullpol fullapo
#   1   -0.17   -0.12    0.00    0.18   -0.01    0.00    0.00      -0.11    2.35   -0.16
#   2   -0.35   -0.43    0.04    0.31   -0.03    0.00    0.00      -0.47    1.35   -0.15
#   3   -0.48   -1.02    0.52    0.38   -0.05    0.00    0.00      -0.65    1.42   -0.18
#   4   -0.70   -0.75    0.18    0.26   -0.04    0.00    0.00      -1.06    0.98   -0.17
#   5   -0.61   -0.37    0.03    0.19   -0.02    0.00    0.00      -0.79    0.93   -0.09
#   6    0.87   -0.80    0.12   -0.54   -0.11    0.00    0.00      -0.45   -1.83   -0.37
#   7   -5.48   -0.72    0.05    1.97    0.52    0.00    0.00      -3.66    8.25    2.17
#   8    1.56   -0.55    0.04   -1.32   -0.12    0.00    0.00      -0.39   -7.11   -0.66
#   9   -0.50   -0.39    0.02    1.63    0.07    0.00    0.00       0.82    9.77    0.40
#  10   -0.16   -0.53    0.06    0.21   -0.07    0.00    0.00      -0.49    1.26   -0.41
#  11   -0.43   -0.92    0.22    0.25   -0.11    0.00    0.00      -1.00    1.02   -0.46
#  12    0.24   -0.91    0.16   -0.16   -0.25    0.00    0.00      -0.93   -0.64   -0.98
#  13   -0.60   -0.62    0.06    0.88    0.42    0.00    0.00       0.15    4.25    2.05
#  14    0.06   -0.32    0.01   -0.10   -0.13    0.00    0.00      -0.48   -0.73   -0.98
#  15   -0.07   -0.27    0.01    0.13   -0.05    0.00    0.00      -0.25    1.21   -0.45
#  16   -1.06   -0.46    0.07    0.29   -0.04    0.00    0.00      -1.20    1.30   -0.17
#  17   -0.53   -0.38    0.02    0.10   -0.05    0.00    0.00      -0.84    0.62   -0.30
#  18   -0.98   -0.20    0.00    0.11   -0.03    0.00    0.00      -1.10    1.48   -0.38
#  19   -0.62   -0.33    0.02    0.12   -0.06    0.00    0.00      -0.88    0.93   -0.47
#  20   -0.04   -0.56    0.05    0.05   -0.06    0.00    0.00      -0.55    0.28   -0.33
#  21   -2.05   -1.48    1.01    1.69    0.16    0.00    0.00      -0.68    5.57    0.52
#  22    1.80   -1.03    0.26   -1.19    0.01    0.00    0.00      -0.16   -3.29    0.02
#  23   -4.47   -0.78    0.05    3.24    0.12    0.00    0.00      -1.84    9.50    0.34
#  24    1.20   -0.53    0.02   -0.06   -0.07    0.00    0.00       0.56   -0.28   -0.32
#  25   -2.68   -0.58    0.03    1.37   -0.10    0.00    0.00      -1.95    5.76   -0.41
#  26   19.12   -1.48    0.33   -6.40   -0.06    0.00    0.00      11.51  -16.51   -0.15
#  27  -33.98   -2.89    2.81    8.43   -0.08    0.00    0.00     -25.72   20.88   -0.21
#  28  -26.66   -2.89    1.77   14.51   -0.26    0.00    0.00     -13.52   30.93   -0.56
#  29    0.03   -0.02    0.00   -0.03   -0.01    0.00    0.00      -0.03   -1.27   -0.28
#  30    0.04   -0.02    0.00    0.00   -0.01    0.00    0.00       0.01   -0.16   -0.28
#  31    0.10   -0.03    0.00    0.00    0.00    0.00    0.00       0.07   -0.08   -0.16
#  32    0.39   -0.19    0.04   -0.09   -0.04    0.00    0.00       0.11   -0.43   -0.20
#  33    0.35   -0.74    0.74   -0.30   -0.11    0.00    0.00      -0.06   -0.77   -0.28
#  34    0.05   -0.37    0.35   -0.15   -0.05    0.00    0.00      -0.17   -0.76   -0.28
#  35    0.09   -0.15    0.02   -0.07   -0.04    0.00    0.00      -0.15   -0.44   -0.28
#  36    0.93   -0.83    1.11   -0.33   -0.09    0.00    0.00       0.79   -1.01   -0.28
#  37    0.09   -0.17    0.02   -0.13   -0.03    0.00    0.00      -0.21   -0.96   -0.24
#  38    0.27   -0.04    0.00   -0.01   -0.01    0.00    0.00       0.21   -0.33   -0.19
#  39    1.29   -0.52    0.22   -0.14   -0.07    0.00    0.00       0.78   -0.46   -0.22
#  40    0.16   -0.28    0.04   -0.30   -0.07    0.00    0.00      -0.45   -1.16   -0.28
#  41    4.45   -0.01    0.00   -0.56    0.05    0.00    0.00       3.93   -4.12    0.39
#  42    0.86   -0.21    0.04   -0.20   -0.05    0.00    0.00       0.44   -0.96   -0.22
#  43    0.57   -0.21    0.04   -0.17   -0.06    0.00    0.00       0.17   -0.83   -0.28
#  44    0.06   -0.04    0.00   -0.03   -0.01    0.00    0.00      -0.02   -0.90   -0.28
#  45    0.07   -0.03    0.00   -0.03   -0.01    0.00    0.00       0.01   -1.34   -0.27
#  46    0.87   -0.13    0.03   -0.19   -0.02    0.00    0.00       0.56   -1.50   -0.14
#  47    1.27   -0.29    0.10   -0.46   -0.08    0.00    0.00       0.54   -1.67   -0.28
#  48    0.52   -0.02    0.00   -0.06   -0.01    0.00    0.00       0.44   -2.20   -0.28
#  49    0.29   -0.08    0.01   -0.21   -0.03    0.00    0.00      -0.02   -2.23   -0.28
#  50    1.07   -0.24    0.04   -0.70   -0.08    0.00    0.00       0.08   -2.50   -0.28
#  51    0.43   -0.68    0.49   -0.66   -0.11    0.00    0.00      -0.54   -1.67   -0.28

@<TRIPOS>MOLECULE
      GL5243104_0       100
   51    53     0     0     0



@<TRIPOS>ATOM
      1 C1          8.0479   -18.9999   -25.2167 C.3        1          -0.1374
      2 C2          9.2166   -18.9127   -24.2330 C.3        1          -0.0898
      3 C3          9.5894   -17.4453   -24.0126 C.3        1          -0.1459
      4 C4          8.8084   -19.5412   -22.8991 C.3        1          -0.1001
      5 C5          8.4358   -21.0087   -23.1197 C.3        1          -0.0833
      6 C6          8.0276   -21.6372   -21.7857 C.3        1           0.1157
      7 N1          7.2357   -22.8439   -22.0365 N.am       1          -0.7121
      8 C7          5.8953   -22.7592   -22.1489 C.2        1           0.5519
      9 O1          5.3437   -21.6818   -22.0424 O.2        1          -0.5325
     10 C8          5.0946   -23.9795   -22.4026 C.ar       1          -0.0829
     11 C9          5.5501   -25.2360   -21.9917 C.ar       1          -0.1418
     12 C10         4.7710   -26.3477   -22.2482 C.ar       1           0.0965
     13 N2          3.6147   -26.2348   -22.8707 N.ar       1          -0.4728
     14 C11         3.1486   -25.0698   -23.2748 C.ar       1           0.0940
     15 C12         3.8599   -23.9062   -23.0543 C.ar       1          -0.1174
     16 C13         9.6399   -21.7606   -23.6904 C.3        1          -0.0745
     17 C14         9.2729   -23.2059   -23.9074 C.ar       1          -0.0379
     18 C15         8.2454   -23.5346   -24.7636 C.ar       1          -0.1353
     19 C16         7.9009   -24.8610   -24.9694 C.ar       1          -0.1019
     20 C17         8.5860   -25.8702   -24.3172 C.ar       1          -0.0046
     21 O2          8.4577   -27.2271   -24.3363 O.3        1          -0.3195
     22 C18         9.1084   -27.7140   -23.1529 C.3        1           0.2051
     23 O3         10.1223   -26.7186   -22.9489 O.3        1          -0.2782
     24 C19         9.6284   -25.5548   -23.4480 C.ar       1           0.0743
     25 C20         9.9801   -24.2152   -23.2433 C.ar       1          -0.1234
     26 C21        11.0829   -23.8700   -22.3319 C.2        1           0.5214
     27 O4         12.2250   -23.7788   -22.7606 O.co2      1          -0.6606
     28 O5         10.8574   -23.6743   -21.1455 O.co2      1          -0.6739
     29 H1          7.7824   -20.0454   -25.3737 H          1           0.0253
     30 H2          7.1901   -18.4643   -24.8101 H          1           0.0427
     31 H3          8.3387   -18.5522   -26.1669 H          1           0.0856
     32 H4         10.0744   -19.4485   -24.6396 H          1           0.0904
     33 H5         10.4219   -17.3833   -23.3118 H          1           0.0435
     34 H6          9.8801   -16.9976   -24.9629 H          1           0.0453
     35 H7          8.7314   -16.9097   -23.6059 H          1           0.0490
     36 H8          9.6410   -19.4791   -22.1984 H          1           0.0551
     37 H9          7.9506   -19.0057   -22.4925 H          1           0.0489
     38 H10         7.6031   -21.0707   -23.8205 H          1           0.0941
     39 H11         8.9211   -21.9001   -21.2195 H          1           0.0740
     40 H12         7.4325   -20.9242   -21.2151 H          1           0.0660
     41 H13         7.6762   -23.7041   -22.1214 H          1           0.4005
     42 H14         6.4969   -25.3361   -21.4818 H          1           0.1406
     43 H15         5.1143   -27.3225   -21.9348 H          1           0.1626
     44 H16         2.1960   -25.0240   -23.7817 H          1           0.1624
     45 H17         3.4698   -22.9545   -23.3840 H          1           0.1477
     46 H18         9.9306   -21.3129   -24.6407 H          1           0.1350
     47 H19        10.4725   -21.6984   -22.9895 H          1           0.0495
     48 H20         7.7046   -22.7536   -25.2775 H          1           0.1281
     49 H21         7.0931   -25.1080   -25.6423 H          1           0.1238
     50 H22         8.4162   -27.7442   -22.3114 H          1           0.1228
     51 H23         9.5528   -28.6939   -23.3270 H          1           0.0739
@<TRIPOS>BOND
     1    1    2 1
     2    1   29 1
     3    1   30 1
     4    1   31 1
     5    2    3 1
     6    2    4 1
     7    2   32 1
     8    3   33 1
     9    3   34 1
    10    3   35 1
    11    4    5 1
    12    4   36 1
    13    4   37 1
    14    5    6 1
    15    5   16 1
    16    5   38 1
    17    6    7 1
    18    6   39 1
    19    6   40 1
    20    7    8 am
    21    7   41 1
    22    8    9 2
    23    8   10 1
    24   10   15 ar
    25   10   11 ar
    26   11   12 ar
    27   11   42 1
    28   12   13 ar
    29   12   43 1
    30   13   14 ar
    31   14   15 ar
    32   14   44 1
    33   15   45 1
    34   16   17 1
    35   16   46 1
    36   16   47 1
    37   17   25 ar
    38   17   18 ar
    39   18   19 ar
    40   18   48 1
    41   19   20 ar
    42   19   49 1
    43   20   24 ar
    44   20   21 1
    45   21   22 1
    46   22   23 1
    47   22   50 1
    48   22   51 1
    49   23   24 1
    50   24   25 ar
    51   25   26 1
    52   26   27 1
    53   26   28 2
