@<TRIPOS>MOLECULE
AVX17285_0_2
   30    32     0     0     0
SMALL
USER_CHARGES

@<TRIPOS>ATOM
      1 C1       15.2963  -27.9086  -23.0922 C.ar      1 <0>        -0.1603
      2 C2       15.2274  -28.1598  -21.7089 C.ar      1 <0>        -0.1076
      3 C3       12.7698  -27.2239  -27.8065 C.ar      1 <0>        -0.1652
      4 C4       14.2236  -27.3212  -23.7715 C.ar      1 <0>        -0.0584
      5 C5       12.0277  -27.1510  -26.6279 C.ar      1 <0>        -0.1391
      6 C6       13.6425  -26.1867  -28.1464 C.ar      1 <0>        -0.0989
      7 C7       14.0850  -27.8288  -20.9778 C.ar      1 <0>        -0.1829
      8 C8       13.0240  -25.0066  -26.1330 C.ar      1 <0>        -0.0866
      9 C9       13.0963  -26.9964  -23.0412 C.ar      1 <0>        -0.0872
     10 C10      12.1546  -26.0423  -25.7912 C.ar      1 <0>        -0.1398
     11 C11      13.7663  -25.0795  -27.3117 C.ar      1 <0>        -0.1280
     12 C12      13.0380  -27.2502  -21.6678 C.ar      1 <0>         0.0515
     13 C13      11.8159  -26.3888  -23.3871 C.2       1 <0>        -0.1470
     14 C14      10.9888  -26.2951  -22.1377 C.2       1 <0>         0.7062
     15 C15      11.3906  -25.9680  -24.5796 C.2       1 <0>         0.0431
     16 C16      14.6834  -23.9865  -27.6726 C.2       1 <0>         0.9084
     17 N1       11.8073  -26.8399  -21.1434 N.am      1 <0>        -0.4880
     18 O1       14.8993  -23.0501  -26.8153 O.co2     1 <0>        -0.8244
     19 O2        9.8632  -25.8422  -22.0406 O.2       1 <0>        -0.6287
     20 O3       15.2397  -24.0022  -28.8339 O.co2     1 <0>        -0.8264
     21 H1       16.1970  -28.1755  -23.6390 H         1 <0>         0.1364
     22 H2       16.0752  -28.6172  -21.2058 H         1 <0>         0.1178
     23 H3       12.6709  -28.0875  -28.4578 H         1 <0>         0.1099
     24 H4       14.2879  -27.1321  -24.8373 H         1 <0>         0.1702
     25 H5       11.3543  -27.9665  -26.3745 H         1 <0>         0.1115
     26 H6       14.2299  -26.2359  -29.0595 H         1 <0>         0.1543
     27 H7       14.0307  -28.0216  -19.9127 H         1 <0>         0.1260
     28 H8       13.1267  -24.1394  -25.4837 H         1 <0>         0.1607
     29 H9       10.4024  -25.5110  -24.6309 H         1 <0>         0.1435
     30 H10      11.5433  -26.9265  -20.1691 H         1 <0>         0.3290
@<TRIPOS>BOND
     1    1    2 ar
     2    1    4 ar
     3    2    7 ar
     4    3    5 ar
     5    3    6 ar
     6    4    9 ar
     7    5   10 ar
     8    6   11 ar
     9    7   12 ar
    10    8   10 ar
    11    8   11 ar
    12    9   12 ar
    13    9   13 1
    14   10   15 1
    15   11   16 1
    16   12   17 1
    17   13   14 1
    18   13   15 2
    19   14   17 am
    20   14   19 2
    21   16   18 1
    22   16   20 2
    23    1   21 1
    24    2   22 1
    25    3   23 1
    26    4   24 1
    27    5   25 1
    28    6   26 1
    29    7   27 1
    30    8   28 1
    31   15   29 1
    32   17   30 1
