@<TRIPOS>MOLECULE
AVX-17543_0_12
   57    58     0     0     0
SMALL
USER_CHARGES

@<TRIPOS>ATOM
      1 C1       -1.3825  -26.0130   -2.4169 C.ar      1 <0>        -0.1603
      2 C2       -1.0543  -27.3119   -2.0206 C.ar      1 <0>        -0.1884
      3 C3       -3.6259  -26.7250   -3.0409 C.ar      1 <0>        -0.0751
      4 C4       -2.6577  -25.7359   -2.9196 C.ar      1 <0>        -0.0436
      5 C5       -2.0251  -28.2849   -2.1462 C.ar      1 <0>         0.0305
      6 C6       -3.2764  -27.9992   -2.6426 C.ar      1 <0>         0.0703
      7 C7       -4.9710  -26.4440   -3.5686 C.2       1 <0>         0.9274
      8 C8        1.4946  -22.8445   -3.3447 C.2       1 <0>         0.6372
      9 C9       -3.1941  -30.1066   -2.1556 C.3       1 <0>         0.3197
     10 C10      -3.4999  -19.9586   -4.1472 C.3       1 <0>        -0.0911
     11 C11      -2.9635  -24.3157   -3.3347 C.3       1 <0>        -0.0434
     12 C12       2.4975  -21.7019   -3.3647 C.3       1 <0>        -0.1557
     13 C13      -3.1755  -21.4458   -4.2166 C.3       1 <0>        -0.0882
     14 C14       3.2634  -21.5294   -2.0512 C.3       1 <0>        -0.0590
     15 C15       4.2850  -20.3883   -2.1158 C.3       1 <0>        -0.1121
     16 C16       3.6168  -19.0704   -2.5245 C.3       1 <0>        -0.1084
     17 C17      -2.2626  -21.8669   -3.0599 C.3       1 <0>        -0.0711
     18 C18      -0.7267  -23.4732   -4.2851 C.3       1 <0>         0.0896
     19 C19       4.5907  -17.9030   -2.6304 C.3       1 <0>         0.1052
     20 C20      -1.7788  -23.3352   -3.1605 C.3       1 <0>        -0.0742
     21 N1        0.3916  -22.5689   -4.1402 N.am      1 <0>        -0.5267
     22 N2        3.8685  -16.6418   -2.9246 N.4       1 <0>        -0.8432
     23 O1       -5.8507  -27.3847   -3.5555 O.co2     1 <0>        -0.7614
     24 O2       -5.2234  -25.2668   -4.0263 O.co2     1 <0>        -0.8425
     25 O3        1.6519  -23.8660   -2.6820 O.2       1 <0>        -0.6812
     26 O4       -1.8887  -29.5975   -1.8127 O.3       1 <0>        -0.3723
     27 O5       -4.0800  -29.0973   -2.6821 O.3       1 <0>        -0.3022
     28 H1       -0.6365  -25.2262   -2.3292 H         1 <0>         0.1135
     29 H2       -0.0698  -27.5412   -1.6291 H         1 <0>         0.0809
     30 H3       -3.0761  -30.8999   -2.9083 H         1 <0>         0.0569
     31 H4       -3.6488  -30.5365   -1.2539 H         1 <0>         0.0668
     32 H5       -4.0190  -19.7092   -3.2131 H         1 <0>         0.0263
     33 H6       -2.5882  -19.3548   -4.2031 H         1 <0>         0.0345
     34 H7       -4.1478  -19.6760   -4.9841 H         1 <0>         0.0264
     35 H8       -3.3165  -24.2991   -4.3763 H         1 <0>         0.1012
     36 H9       -3.8190  -23.9863   -2.7290 H         1 <0>         0.0414
     37 H10       3.1970  -21.8498   -4.1995 H         1 <0>         0.0633
     38 H11       1.9312  -20.7830   -3.5645 H         1 <0>         0.0812
     39 H12      -4.1092  -22.0190   -4.1839 H         1 <0>         0.0550
     40 H13      -2.6984  -21.6547   -5.1825 H         1 <0>         0.0498
     41 H14       2.5411  -21.3101   -1.2514 H         1 <0>         0.0350
     42 H15       3.7662  -22.4664   -1.7812 H         1 <0>         0.0764
     43 H16       5.0699  -20.6443   -2.8421 H         1 <0>         0.0216
     44 H17       4.7697  -20.2709   -1.1395 H         1 <0>         0.0978
     45 H18       3.1377  -19.2054   -3.5036 H         1 <0>         0.0622
     46 H19       2.8185  -18.8223   -1.8102 H         1 <0>         0.1049
     47 H20      -2.8136  -21.7365   -2.1162 H         1 <0>         0.0297
     48 H21      -1.4008  -21.1887   -3.0138 H         1 <0>         0.0380
     49 H22      -0.3177  -24.4906   -4.3043 H         1 <0>         0.1001
     50 H23      -1.1695  -23.2910   -5.2711 H         1 <0>         0.0512
     51 H24       5.1476  -17.7423   -1.7010 H         1 <0>         0.0945
     52 H25       5.2951  -18.0608   -3.4558 H         1 <0>         0.1148
     53 H26      -1.2640  -23.5726   -2.2181 H         1 <0>         0.0364
     54 H27       0.3692  -21.6882   -4.6458 H         1 <0>         0.3683
     55 H28       2.8596  -16.7491   -2.7697 H         1 <0>         0.4557
     56 H29       4.0095  -16.3594   -3.9025 H         1 <0>         0.4831
     57 H30       4.1979  -15.8758   -2.3217 H         1 <0>         0.4532
@<TRIPOS>BOND
     1    1    2 ar
     2    1    4 ar
     3    2    5 ar
     4    3    4 ar
     5    3    6 ar
     6    3    7 1
     7    4   11 1
     8    5    6 ar
     9    5   26 1
    10    6   27 1
    11    7   23 1
    12    7   24 2
    13    8   12 1
    14    8   21 am
    15    8   25 2
    16    9   26 1
    17    9   27 1
    18   10   13 1
    19   11   20 1
    20   12   14 1
    21   13   17 1
    22   14   15 1
    23   15   16 1
    24   16   19 1
    25   17   20 1
    26   18   20 1
    27   18   21 1
    28   19   22 1
    29    1   28 1
    30    2   29 1
    31    9   30 1
    32    9   31 1
    33   10   32 1
    34   10   33 1
    35   10   34 1
    36   11   35 1
    37   11   36 1
    38   12   37 1
    39   12   38 1
    40   13   39 1
    41   13   40 1
    42   14   41 1
    43   14   42 1
    44   15   43 1
    45   15   44 1
    46   16   45 1
    47   16   46 1
    48   17   47 1
    49   17   48 1
    50   18   49 1
    51   18   50 1
    52   19   51 1
    53   19   52 1
    54   20   53 1
    55   21   54 1
    56   22   55 1
    57   22   56 1
    58   22   57 1
