@<TRIPOS>MOLECULE
AVX17680_0_7
   57    58     0     0     0
SMALL
USER_CHARGES

@<TRIPOS>ATOM
      1 C1        6.2419  -21.7284   -2.1218 C.ar      1 <0>        -0.1603
      2 C2        7.2546  -22.6884   -2.0491 C.ar      1 <0>        -0.1884
      3 C3        5.2060  -22.6063   -0.1010 C.ar      1 <0>        -0.0751
      4 C4        5.2233  -21.6875   -1.1534 C.ar      1 <0>        -0.0436
      5 C5        7.2144  -23.5840   -1.0000 C.ar      1 <0>         0.0305
      6 C6        6.2176  -23.5439   -0.0521 C.ar      1 <0>         0.0703
      7 C7        4.1507  -22.5834    0.9250 C.2       1 <0>         0.9274
      8 C8       -0.2680  -21.1638   -0.1569 C.2       1 <0>         0.6372
      9 C9        7.5655  -25.1663    0.4340 C.3       1 <0>         0.3197
     10 C10       2.1362  -22.1096   -5.6694 C.3       1 <0>        -0.0911
     11 C11       4.1507  -20.6305   -1.2763 C.3       1 <0>        -0.0434
     12 C12      -0.6119  -21.4847    1.2883 C.3       1 <0>        -0.1557
     13 C13       1.8773  -21.9821   -4.1753 C.3       1 <0>        -0.0882
     14 C14      -0.4273  -20.3052    2.2420 C.3       1 <0>        -0.0590
     15 C15      -1.3693  -19.1400    1.9172 C.3       1 <0>        -0.1121
     16 C16      -1.0565  -17.9195    2.7885 C.3       1 <0>        -0.1084
     17 C17       2.9732  -21.1614   -3.4875 C.3       1 <0>        -0.0711
     18 C18       1.6135  -20.2901   -1.5387 C.3       1 <0>         0.0896
     19 C19       0.3846  -17.4381    2.6639 C.3       1 <0>         0.1052
     20 C20       2.8452  -21.1255   -1.9459 C.3       1 <0>        -0.0742
     21 N1        1.0323  -20.6933   -0.2785 N.am      1 <0>        -0.5267
     22 N2        0.7395  -17.2117    1.2438 N.4       1 <0>        -0.8432
     23 O1        4.2841  -21.7929    1.9333 O.co2     1 <0>        -0.7614
     24 O2        3.1286  -23.3547    0.7805 O.co2     1 <0>        -0.8425
     25 O3       -1.0653  -21.2923   -1.0832 O.2       1 <0>        -0.6812
     26 O4        8.1104  -24.5819   -0.7668 O.3       1 <0>        -0.3723
     27 O5        6.3646  -24.5121    0.8934 O.3       1 <0>        -0.3022
     28 H1        6.2485  -21.0099   -2.9384 H         1 <0>         0.1135
     29 H2        8.0418  -22.7234   -2.7938 H         1 <0>         0.0809
     30 H3        7.3380  -26.2207    0.2386 H         1 <0>         0.0569
     31 H4        8.3225  -25.1098    1.2259 H         1 <0>         0.0668
     32 H5        3.1058  -22.5811   -5.8606 H         1 <0>         0.0263
     33 H6        1.3585  -22.7104   -6.1526 H         1 <0>         0.0345
     34 H7        2.1416  -21.1208   -6.1385 H         1 <0>         0.0264
     35 H8        3.9284  -20.2059   -0.2890 H         1 <0>         0.1012
     36 H9        4.5856  -19.8069   -1.8549 H         1 <0>         0.0414
     37 H10      -1.6416  -21.8587    1.3417 H         1 <0>         0.0633
     38 H11       0.0530  -22.2997    1.6012 H         1 <0>         0.0812
     39 H12       0.9014  -21.5074   -4.0205 H         1 <0>         0.0550
     40 H13       1.8247  -22.9877   -3.7466 H         1 <0>         0.0498
     41 H14      -0.6309  -20.6505    3.2629 H         1 <0>         0.0350
     42 H15       0.6141  -19.9602    2.2246 H         1 <0>         0.0764
     43 H16      -2.4081  -19.4519    2.0834 H         1 <0>         0.0216
     44 H17      -1.2775  -18.8764    0.8586 H         1 <0>         0.0978
     45 H18      -1.7182  -17.0944    2.4964 H         1 <0>         0.0622
     46 H19      -1.2818  -18.1484    3.8373 H         1 <0>         0.1049
     47 H20       2.9254  -20.1337   -3.8704 H         1 <0>         0.0297
     48 H21       3.9558  -21.5586   -3.7730 H         1 <0>         0.0380
     49 H22       1.8858  -19.2332   -1.4427 H         1 <0>         0.1001
     50 H23       0.8245  -20.3502   -2.2959 H         1 <0>         0.0512
     51 H24       0.5524  -16.4950    3.1923 H         1 <0>         0.0945
     52 H25       1.0812  -18.1927    3.0423 H         1 <0>         0.1148
     53 H26       2.6490  -22.1527   -1.6096 H         1 <0>         0.0364
     54 H27       1.6039  -20.6291    0.5594 H         1 <0>         0.3683
     55 H28      -0.0995  -17.1949    0.6520 H         1 <0>         0.4557
     56 H29       1.3556  -17.9550    0.8956 H         1 <0>         0.4831
     57 H30       1.2277  -16.3170    1.1243 H         1 <0>         0.4532
@<TRIPOS>BOND
     1    1    2 ar
     2    1    4 ar
     3    2    5 ar
     4    3    4 ar
     5    3    6 ar
     6    3    7 1
     7    4   11 1
     8    5    6 ar
     9    5   26 1
    10    6   27 1
    11    7   23 1
    12    7   24 2
    13    8   12 1
    14    8   21 am
    15    8   25 2
    16    9   26 1
    17    9   27 1
    18   10   13 1
    19   11   20 1
    20   12   14 1
    21   13   17 1
    22   14   15 1
    23   15   16 1
    24   16   19 1
    25   17   20 1
    26   18   20 1
    27   18   21 1
    28   19   22 1
    29    1   28 1
    30    2   29 1
    31    9   30 1
    32    9   31 1
    33   10   32 1
    34   10   33 1
    35   10   34 1
    36   11   35 1
    37   11   36 1
    38   12   37 1
    39   12   38 1
    40   13   39 1
    41   13   40 1
    42   14   41 1
    43   14   42 1
    44   15   43 1
    45   15   44 1
    46   16   45 1
    47   16   46 1
    48   17   47 1
    49   17   48 1
    50   18   49 1
    51   18   50 1
    52   19   51 1
    53   19   52 1
    54   20   53 1
    55   21   54 1
    56   22   55 1
    57   22   56 1
    58   22   57 1
