@<TRIPOS>MOLECULE
AVX17377_0_1
   35    38     0     0     0
SMALL
USER_CHARGES

@<TRIPOS>ATOM
      1 C1        7.2151  -29.0808  -21.4976 C.ar      1 <0>        -0.1893
      2 C2        8.3691  -29.1853  -22.2936 C.ar      1 <0>        -0.0953
      3 C3        6.7634  -27.8352  -21.0537 C.ar      1 <0>        -0.0837
      4 C4       11.5111  -26.5651  -21.4134 C.ar      1 <0>        -0.1354
      5 C5        9.0905  -28.0463  -22.6592 C.ar      1 <0>        -0.1827
      6 C6       12.5852  -27.3135  -20.9262 C.ar      1 <0>        -0.1537
      7 C7       12.6046  -26.3218  -23.5756 C.ar      1 <0>        -0.0405
      8 C8        7.4841  -26.7138  -21.4204 C.ar      1 <0>        -0.1561
      9 C9       11.5206  -26.0721  -22.7305 C.ar      1 <0>        -0.1101
     10 C10       8.6282  -26.8218  -22.2103 C.ar      1 <0>         0.0890
     11 C11      13.6431  -27.5459  -21.7808 C.ar      1 <0>         0.0431
     12 C12      13.6525  -27.0633  -23.0702 C.ar      1 <0>         0.0569
     13 C13       8.3832  -24.5596  -21.7961 C.2       1 <0>         0.6871
     14 C14      12.6374  -25.8163  -24.9582 C.2       1 <0>         0.9161
     15 C15       7.2301  -25.2779  -21.0900 C.3       1 <0>        -0.1170
     16 C16      15.4886  -28.1565  -22.7309 C.3       1 <0>         0.3193
     17 C17      10.3424  -25.2727  -23.2071 C.3       1 <0>         0.1533
     18 N1        9.1565  -25.5429  -22.4298 N.am      1 <0>        -0.3716
     19 O1       12.3057  -26.6101  -25.9171 O.co2     1 <0>        -0.8239
     20 O2        8.5585  -23.3500  -21.7839 O.2       1 <0>        -0.5245
     21 O3       12.9972  -24.5971  -25.1634 O.co2     1 <0>        -0.7855
     22 O4       14.7690  -28.2503  -21.4842 O.3       1 <0>        -0.3601
     23 O5       14.7855  -27.4050  -23.7419 O.3       1 <0>        -0.3114
     24 H1        6.6689  -29.9802  -21.2261 H         1 <0>         0.1177
     25 H2        8.7022  -30.1646  -22.6276 H         1 <0>         0.1213
     26 H3        5.8725  -27.7565  -20.4406 H         1 <0>         0.1249
     27 H4       10.6638  -26.3664  -20.7614 H         1 <0>         0.1165
     28 H5        9.9795  -28.1358  -23.2731 H         1 <0>         0.1419
     29 H6       12.5819  -27.6956  -19.9114 H         1 <0>         0.1300
     30 H7        6.2784  -24.9355  -21.5046 H         1 <0>         0.0826
     31 H8        7.2923  -25.0978  -20.0131 H         1 <0>         0.0806
     32 H9       16.4545  -27.6740  -22.5418 H         1 <0>         0.0511
     33 H10      15.6690  -29.1695  -23.1087 H         1 <0>         0.0482
     34 H11      10.5519  -24.1995  -23.1405 H         1 <0>         0.1152
     35 H12      10.1138  -25.4956  -24.2553 H         1 <0>         0.0462
@<TRIPOS>BOND
     1    1    2 ar
     2    1    3 ar
     3    2    5 ar
     4    3    8 ar
     5    4    6 ar
     6    4    9 ar
     7    5   10 ar
     8    6   11 ar
     9    7    9 ar
    10    7   12 ar
    11    7   14 1
    12    8   10 ar
    13    8   15 1
    14    9   17 1
    15   10   18 1
    16   11   12 ar
    17   11   22 1
    18   12   23 1
    19   13   15 1
    20   13   18 am
    21   13   20 2
    22   14   19 1
    23   14   21 2
    24   16   22 1
    25   16   23 1
    26   17   18 1
    27    1   24 1
    28    2   25 1
    29    3   26 1
    30    4   27 1
    31    5   28 1
    32    6   29 1
    33   15   30 1
    34   15   31 1
    35   16   32 1
    36   16   33 1
    37   17   34 1
    38   17   35 1
