@<TRIPOS>MOLECULE
AVX17379_0_2
   32    33     0     0     0
SMALL
USER_CHARGES

@<TRIPOS>ATOM
      1 C1        6.4303  -20.4185   -2.5614 C.ar      1 <0>        -0.1197
      2 C2        5.5929  -21.5155   -2.2505 C.ar      1 <0>        -0.0681
      3 C3        5.9519  -19.1245   -2.4363 C.ar      1 <0>        -0.0912
      4 C4        4.3119  -21.2750   -1.7439 C.ar      1 <0>        -0.1260
      5 C5        0.4042  -19.6575   -0.8292 C.2       1 <0>        -0.2824
      6 C6        4.6710  -18.8839   -1.9297 C.ar      1 <0>        -0.1806
      7 C7        3.8510  -19.9592   -1.5835 C.ar      1 <0>         0.0574
      8 C8        1.0913  -19.1289    0.2799 C.2       1 <0>         0.3448
      9 C9        1.3991  -20.0484   -1.6973 C.2       1 <0>        -0.0420
     10 C10       1.3194  -20.6738   -3.0336 C.3       1 <0>        -0.0507
     11 C11       4.2074  -17.4617   -1.7708 C.3       1 <0>         0.1815
     12 C12       0.5080  -18.5619    1.5112 C.3       1 <0>         0.1008
     13 N1        2.4203  -19.1782    0.1324 N.2       1 <0>        -0.5786
     14 N2        2.5760  -19.7425   -1.0795 N.pl3     1 <0>         0.1085
     15 N3        3.6865  -16.8622   -3.0320 N.4       1 <0>        -0.8357
     16 O1        0.8127  -19.4078    2.6249 O.3       1 <0>        -0.6193
     17 H1        7.4346  -20.5975   -2.9423 H         1 <0>         0.1638
     18 H2        5.9520  -22.5400   -2.3757 H         1 <0>         0.1696
     19 H3        6.5984  -18.2937   -2.7098 H         1 <0>         0.1470
     20 H4        3.6839  -22.1234   -1.4794 H         1 <0>         0.1677
     21 H5       -0.6637  -19.7429   -0.9787 H         1 <0>         0.1864
     22 H6        1.2792  -19.9052   -3.8259 H         1 <0>         0.0699
     23 H7        2.1876  -21.3326   -3.2401 H         1 <0>         0.0588
     24 H8        0.4251  -21.3115   -3.1393 H         1 <0>         0.0803
     25 H9        3.3964  -17.3807   -1.0348 H         1 <0>         0.1231
     26 H10       5.0234  -16.8107   -1.4332 H         1 <0>         0.1023
     27 H11       0.8957  -17.5490    1.7359 H         1 <0>         0.0617
     28 H12      -0.5939  -18.4616    1.4466 H         1 <0>         0.0576
     29 H13       2.9306  -16.1907   -2.8368 H         1 <0>         0.4687
     30 H14       3.3178  -17.5922   -3.6503 H         1 <0>         0.4788
     31 H15       4.4298  -16.3658   -3.5317 H         1 <0>         0.4428
     32 H16       0.4061  -18.9866    3.3999 H         1 <0>         0.4228
@<TRIPOS>BOND
     1    1    2 ar
     2    1    3 ar
     3    2    4 ar
     4    3    6 ar
     5    4    7 ar
     6    5    8 1
     7    5    9 2
     8    6    7 ar
     9    6   11 1
    10    7   14 1
    11    8   12 1
    12    8   13 2
    13    9   10 1
    14    9   14 1
    15   11   15 1
    16   12   16 1
    17   13   14 1
    18    1   17 1
    19    2   18 1
    20    3   19 1
    21    4   20 1
    22    5   21 1
    23   10   22 1
    24   10   23 1
    25   10   24 1
    26   11   25 1
    27   11   26 1
    28   12   27 1
    29   12   28 1
    30   15   29 1
    31   15   30 1
    32   15   31 1
    33   16   32 1
