@<TRIPOS>MOLECULE
AVX17557_3_7
   59    62     0     0     0
SMALL
USER_CHARGES

@<TRIPOS>ATOM
      1 C1        1.1198  -29.4804   -0.7431 C.ar      1 <0>        -0.1428
      2 C2        0.0752  -28.8953   -0.0084 C.ar      1 <0>        -0.1318
      3 C3        2.2420  -28.7325   -1.1046 C.ar      1 <0>        -0.1286
      4 C4        0.1366  -27.5529    0.3733 C.ar      1 <0>        -0.0980
      5 C5        1.4185  -22.0984   -1.0520 C.ar      1 <0>        -0.1503
      6 C6        1.4847  -20.7485   -0.6958 C.ar      1 <0>        -0.1526
      7 C7        0.1719  -22.6137    0.9755 C.ar      1 <0>        -0.0674
      8 C8        2.3008  -27.4053   -0.7116 C.ar      1 <0>        -0.1075
      9 C9        1.2557  -26.8178    0.0151 C.ar      1 <0>        -0.0764
     10 C10       0.7657  -23.0256   -0.2211 C.ar      1 <0>        -0.0833
     11 C11       0.8903  -20.3679    0.4908 C.ar      1 <0>         0.0404
     12 C12       0.2513  -21.2755    1.3040 C.ar      1 <0>         0.0673
     13 C13      -0.5170  -23.5656    1.8616 C.2       1 <0>         0.9183
     14 C14       4.6298  -23.4241    0.3788 C.2       1 <0>         0.6587
     15 C15       3.3782  -26.4091   -1.0021 C.3       1 <0>        -0.0557
     16 C16       0.1203  -19.3189    2.2217 C.3       1 <0>         0.3182
     17 C17       1.5330  -25.3624    0.2870 C.3       1 <0>        -0.0343
     18 C18       3.0674  -25.3277    0.0526 C.3       1 <0>         0.1047
     19 C19       0.7218  -24.4693   -0.6490 C.3       1 <0>        -0.0179
     20 C20       4.9503  -22.0577   -0.2043 C.3       1 <0>        -0.1643
     21 C21       5.1895  -22.0735   -1.7142 C.3       1 <0>        -0.0702
     22 C22       5.6812  -20.7209   -2.2408 C.3       1 <0>        -0.0934
     23 C23       4.5915  -19.6515   -2.1173 C.3       1 <0>        -0.1205
     24 C24       4.9986  -18.3015   -2.6940 C.3       1 <0>         0.1074
     25 N1        3.5895  -24.0385   -0.3036 N.am      1 <0>        -0.5441
     26 N2        3.8516  -17.3635   -2.6923 N.4       1 <0>        -0.8422
     27 O1       -1.7375  -23.8829    1.6011 O.co2     1 <0>        -0.8119
     28 O2        0.1231  -24.0496    2.8686 O.co2     1 <0>        -0.8053
     29 O3        5.2176  -23.8965    1.3480 O.2       1 <0>        -0.6199
     30 O4        0.8534  -19.1047    0.9978 O.3       1 <0>        -0.3575
     31 O5       -0.2653  -20.6941    2.4220 O.3       1 <0>        -0.3079
     32 H1        1.0555  -30.5278   -1.0279 H         1 <0>         0.1204
     33 H2       -0.7849  -29.4965    0.2722 H         1 <0>         0.1295
     34 H3        3.0447  -29.1853   -1.6780 H         1 <0>         0.1220
     35 H4       -0.6741  -27.1089    0.9408 H         1 <0>         0.1664
     36 H5        1.8787  -22.4265   -1.9818 H         1 <0>         0.1036
     37 H6        1.9870  -20.0303   -1.3335 H         1 <0>         0.1259
     38 H7        4.3548  -26.8672   -0.8173 H         1 <0>         0.0700
     39 H8        3.3278  -26.0299   -2.0264 H         1 <0>         0.0481
     40 H9        0.7449  -19.0020    3.0651 H         1 <0>         0.0570
     41 H10      -0.7838  -18.6992    2.2020 H         1 <0>         0.0545
     42 H11       1.2944  -25.1532    1.3013 H         1 <0>         0.1256
     43 H12       3.5966  -25.5851    1.0165 H         1 <0>         0.0937
     44 H13      -0.3181  -24.8148   -0.6790 H         1 <0>         0.1000
     45 H14       1.1033  -24.5651   -1.6730 H         1 <0>         0.0120
     46 H15       4.1441  -21.3580    0.0457 H         1 <0>         0.0579
     47 H16       5.8605  -21.7034    0.2952 H         1 <0>         0.0607
     48 H17       5.9456  -22.8361   -1.9377 H         1 <0>         0.0710
     49 H18       4.2746  -22.3689   -2.2420 H         1 <0>         0.0747
     50 H19       5.9758  -20.8242   -3.2929 H         1 <0>         0.0184
     51 H20       6.5718  -20.4112   -1.6845 H         1 <0>         0.0554
     52 H21       3.6959  -19.9931   -2.6501 H         1 <0>         0.0787
     53 H22       4.3070  -19.5345   -1.0636 H         1 <0>         0.1114
     54 H23       5.7995  -17.8302   -2.1171 H         1 <0>         0.1057
     55 H24       5.3153  -18.4044   -3.7367 H         1 <0>         0.1101
     56 H25       3.1770  -23.5523   -1.0942 H         1 <0>         0.3126
     57 H26       3.0889  -17.7146   -2.1024 H         1 <0>         0.4672
     58 H27       3.4821  -17.2335   -3.6410 H         1 <0>         0.4597
     59 H28       4.1282  -16.4427   -2.3327 H         1 <0>         0.4569
@<TRIPOS>BOND
     1    1    2 ar
     2    1    3 ar
     3    2    4 ar
     4    3    8 ar
     5    4    9 ar
     6    5    6 ar
     7    5   10 ar
     8    6   11 ar
     9    7   10 ar
    10    7   12 ar
    11    7   13 1
    12    8    9 ar
    13    8   15 1
    14    9   17 1
    15   10   19 1
    16   11   12 ar
    17   11   30 1
    18   12   31 1
    19   13   27 1
    20   13   28 2
    21   14   20 1
    22   14   25 am
    23   14   29 2
    24   15   18 1
    25   16   30 1
    26   16   31 1
    27   17   18 1
    28   17   19 1
    29   18   25 1
    30   20   21 1
    31   21   22 1
    32   22   23 1
    33   23   24 1
    34   24   26 1
    35    1   32 1
    36    2   33 1
    37    3   34 1
    38    4   35 1
    39    5   36 1
    40    6   37 1
    41   15   38 1
    42   15   39 1
    43   16   40 1
    44   16   41 1
    45   17   42 1
    46   18   43 1
    47   19   44 1
    48   19   45 1
    49   20   46 1
    50   20   47 1
    51   21   48 1
    52   21   49 1
    53   22   50 1
    54   22   51 1
    55   23   52 1
    56   23   53 1
    57   24   54 1
    58   24   55 1
    59   25   56 1
    60   26   57 1
    61   26   58 1
    62   26   59 1
