@<TRIPOS>MOLECULE
AVX17287_0_18
   34    37     0     0     0
SMALL
USER_CHARGES

@<TRIPOS>ATOM
      1 C1        7.2491  -43.6516   -0.8080 C.ar      1 <0>        -0.1623
      2 C2        7.0270  -42.7087    0.1942 C.ar      1 <0>        -0.1214
      3 C3        8.3312  -44.5361   -0.7320 C.ar      1 <0>        -0.0449
      4 C4       11.9541  -45.4931   -2.1591 C.ar      1 <0>        -0.1528
      5 C5        7.8762  -42.6193    1.3016 C.ar      1 <0>        -0.1612
      6 C6       13.0109  -45.1019   -2.9848 C.ar      1 <0>        -0.1507
      7 C7       10.7942  -44.6587    1.9679 C.2       1 <0>        -0.0434
      8 C8        9.2009  -44.4646    0.3751 C.ar      1 <0>        -0.0653
      9 C9       13.4870  -45.8645   -0.3032 C.ar      1 <0>        -0.0603
     10 C10      12.1907  -45.8722   -0.8259 C.ar      1 <0>        -0.0646
     11 C11      10.3650  -45.1822    0.7694 C.2       1 <0>        -0.0677
     12 C12       8.9539  -43.5098    1.3643 C.ar      1 <0>         0.0641
     13 C13      14.2935  -45.1451   -2.4476 C.ar      1 <0>         0.0336
     14 C14      14.5128  -45.4740   -1.1394 C.ar      1 <0>         0.0602
     15 C15      13.7597  -46.2570    1.0891 C.2       1 <0>         0.9196
     16 C16      16.4041  -44.9478   -2.0503 C.3       1 <0>         0.3182
     17 C17      11.0061  -46.2904    0.0327 C.3       1 <0>         0.0251
     18 N1        9.9366  -43.6507    2.3187 N.pl3     1 <0>        -0.5773
     19 O1       14.9791  -46.2598    1.5051 O.co2     1 <0>        -0.8042
     20 O2       12.7699  -46.5848    1.8452 O.co2     1 <0>        -0.8215
     21 O3       15.4166  -44.7227   -3.0902 O.3       1 <0>        -0.3593
     22 O4       15.8315  -45.4040   -0.8078 O.3       1 <0>        -0.3118
     23 H1        6.5756  -43.7017   -1.6599 H         1 <0>         0.1223
     24 H2        6.1805  -42.0316    0.1151 H         1 <0>         0.1105
     25 H3        8.4908  -45.2657   -1.5211 H         1 <0>         0.1650
     26 H4       10.9423  -45.5020   -2.5588 H         1 <0>         0.1117
     27 H5        7.7027  -41.8844    2.0809 H         1 <0>         0.1154
     28 H6       12.8328  -44.8089   -4.0132 H         1 <0>         0.1271
     29 H7       11.6321  -44.9117    2.6033 H         1 <0>         0.1562
     30 H8       17.1379  -45.6870   -2.3915 H         1 <0>         0.0488
     31 H9       16.9197  -43.9964   -1.8714 H         1 <0>         0.0492
     32 H10      10.2757  -46.8164   -0.6173 H         1 <0>         0.0312
     33 H11      11.3449  -47.0888    0.7243 H         1 <0>         0.0964
     34 H12      10.0130  -43.0905    3.1568 H         1 <0>         0.4142
@<TRIPOS>BOND
     1    1    2 ar
     2    1    3 ar
     3    2    5 ar
     4    3    8 ar
     5    4    6 ar
     6    4   10 ar
     7    5   12 ar
     8    6   13 ar
     9    7   11 2
    10    7   18 1
    11    8   11 1
    12    8   12 ar
    13    9   10 ar
    14    9   14 ar
    15    9   15 1
    16   10   17 1
    17   11   17 1
    18   12   18 1
    19   13   14 ar
    20   13   21 1
    21   14   22 1
    22   15   19 1
    23   15   20 2
    24   16   21 1
    25   16   22 1
    26    1   23 1
    27    2   24 1
    28    3   25 1
    29    4   26 1
    30    5   27 1
    31    6   28 1
    32    7   29 1
    33   16   30 1
    34   16   31 1
    35   17   32 1
    36   17   33 1
    37   18   34 1
