@<TRIPOS>MOLECULE
AVX17260_0_10
   35    38     0     0     0
SMALL
USER_CHARGES

@<TRIPOS>ATOM
      1 C1        9.6270  -41.7541   -0.5692 C.ar      1 <0>        -0.1703
      2 C2        8.3459  -41.5911   -0.0111 C.ar      1 <0>        -0.1101
      3 C3       10.4210  -42.8616   -0.2321 C.ar      1 <0>        -0.0628
      4 C4       11.7165  -45.0061   -1.9665 C.ar      1 <0>        -0.1223
      5 C5        7.8369  -42.5318    0.8941 C.ar      1 <0>        -0.1900
      6 C6       12.7381  -44.5515   -2.8072 C.ar      1 <0>        -0.1454
      7 C7       13.3427  -45.7473   -0.3051 C.ar      1 <0>        -0.0661
      8 C8        9.9093  -43.7916    0.6618 C.ar      1 <0>        -0.1255
      9 C9       12.0171  -45.6005   -0.7226 C.ar      1 <0>        -0.0890
     10 C10       8.6407  -43.6152    1.2097 C.ar      1 <0>         0.0533
     11 C11      14.0383  -44.7083   -2.3714 C.ar      1 <0>         0.0388
     12 C12      14.3326  -45.2901   -1.1539 C.ar      1 <0>         0.0564
     13 C13       9.4081  -45.5902    2.1378 C.2       1 <0>         0.7001
     14 C14      13.6822  -46.3661    0.9924 C.2       1 <0>         0.9192
     15 C15      16.1876  -44.7360   -2.1235 C.3       1 <0>         0.3196
     16 C16      10.5230  -45.0541    1.2153 C.3       1 <0>        -0.0724
     17 C17      10.8797  -46.0751    0.1480 C.3       1 <0>        -0.0096
     18 N1        8.3506  -44.6714    2.0755 N.am      1 <0>        -0.4991
     19 O1       14.9085  -46.3486    1.3860 O.co2     1 <0>        -0.8123
     20 O2        9.4572  -46.6265    2.7945 O.2       1 <0>        -0.6129
     21 O3       12.7419  -46.9050    1.6912 O.co2     1 <0>        -0.8247
     22 O4       15.1565  -44.3278   -3.0499 O.3       1 <0>        -0.3593
     23 O5       15.6716  -45.3469   -0.9179 O.3       1 <0>        -0.3154
     24 H1       10.0037  -41.0077   -1.2702 H         1 <0>         0.1272
     25 H2        7.7480  -40.7218   -0.2884 H         1 <0>         0.1155
     26 H3       11.4094  -42.9795   -0.6619 H         1 <0>         0.1752
     27 H4       10.6822  -44.8956   -2.2846 H         1 <0>         0.1273
     28 H5        6.8507  -42.4086    1.3262 H         1 <0>         0.1241
     29 H6       12.5107  -44.0925   -3.7671 H         1 <0>         0.1312
     30 H7       16.8454  -45.4567   -2.6239 H         1 <0>         0.0494
     31 H8       16.7759  -43.8514   -1.8491 H         1 <0>         0.0483
     32 H9       11.3896  -44.8048    1.8376 H         1 <0>         0.1450
     33 H10      10.0016  -46.2821   -0.4767 H         1 <0>         0.0980
     34 H11      11.1472  -47.0346    0.6210 H         1 <0>         0.0346
     35 H12       7.4852  -44.7642    2.5945 H         1 <0>         0.3240
@<TRIPOS>BOND
     1    1    2 ar
     2    1    3 ar
     3    2    5 ar
     4    3    8 ar
     5    4    6 ar
     6    4    9 ar
     7    5   10 ar
     8    6   11 ar
     9    7    9 ar
    10    7   12 ar
    11    7   14 1
    12    8   10 ar
    13    8   16 1
    14    9   17 1
    15   10   18 1
    16   11   12 ar
    17   11   22 1
    18   12   23 1
    19   13   16 1
    20   13   18 am
    21   13   20 2
    22   14   19 1
    23   14   21 2
    24   15   22 1
    25   15   23 1
    26   16   17 1
    27    1   24 1
    28    2   25 1
    29    3   26 1
    30    4   27 1
    31    5   28 1
    32    6   29 1
    33   15   30 1
    34   15   31 1
    35   16   32 1
    36   17   33 1
    37   17   34 1
    38   18   35 1
