@<TRIPOS>MOLECULE
AVX17560_0_9
   54    55     0     0     0
SMALL
USER_CHARGES

@<TRIPOS>ATOM
      1 C1       11.7734  -44.6858   -1.5878 C.ar      1 <0>        -0.1537
      2 C2       12.5728  -44.7084   -2.7371 C.ar      1 <0>        -0.1421
      3 C3       13.5688  -45.6979   -0.2812 C.ar      1 <0>        -0.0763
      4 C4       12.2686  -45.1777   -0.3669 C.ar      1 <0>        -0.0791
      5 C5       13.8467  -45.2706   -2.6286 C.ar      1 <0>         0.0330
      6 C6       14.3377  -45.7085   -1.4304 C.ar      1 <0>         0.0705
      7 C7       14.1096  -46.2183    0.9855 C.2       1 <0>         0.9237
      8 C8       11.3545  -48.5142    3.2979 C.2       1 <0>         0.6478
      9 C9       15.8866  -45.9304   -2.9349 C.3       1 <0>         0.3174
     10 C10       7.6588  -44.2758   -0.2842 C.3       1 <0>        -0.0860
     11 C11       7.3608  -43.6001    2.1076 C.3       1 <0>        -0.0889
     12 C12      11.3651  -45.1314    0.8468 C.3       1 <0>        -0.0340
     13 C13      11.0326  -48.5637    4.7811 C.3       1 <0>        -0.1671
     14 C14       9.9350  -49.5739    5.1082 C.3       1 <0>        -0.1083
     15 C15       8.9323  -45.4977    1.5638 C.3       1 <0>        -0.0702
     16 C16      10.5287  -47.4963    1.1829 C.3       1 <0>         0.0551
     17 C17       8.6009  -49.1546    4.4976 C.3       1 <0>         0.1027
     18 C18       8.3538  -44.1511    1.0719 C.3       1 <0>        -0.0721
     19 C19      10.1320  -46.0683    0.7554 C.3       1 <0>        -0.0748
     20 N1       10.4507  -47.7110    2.6015 N.am      1 <0>        -0.5185
     21 N2        8.3073  -47.7481    4.8746 N.4       1 <0>        -0.8427
     22 O1       14.8613  -45.4537    1.6986 O.co2     1 <0>        -0.7816
     23 O2       13.8135  -47.4213    1.3389 O.co2     1 <0>        -0.8510
     24 O3       12.3020  -49.1188    2.7924 O.2       1 <0>        -0.6263
     25 O4       14.7751  -45.2973   -3.6282 O.3       1 <0>        -0.3570
     26 O5       15.6191  -46.1730   -1.5380 O.3       1 <0>        -0.3081
     27 H1       10.7600  -44.2826   -1.6468 H         1 <0>         0.1142
     28 H2       12.1950  -44.3301   -3.6804 H         1 <0>         0.1313
     29 H3       16.1345  -46.8853   -3.4187 H         1 <0>         0.0514
     30 H4       16.7531  -45.2630   -3.0172 H         1 <0>         0.0577
     31 H5        6.8357  -44.9977   -0.2441 H         1 <0>         0.0141
     32 H6        7.2420  -43.3100   -0.5989 H         1 <0>         0.0283
     33 H7        8.3617  -44.5989   -1.0625 H         1 <0>         0.0421
     34 H8        6.5192  -44.2877    2.2469 H         1 <0>         0.0166
     35 H9        6.9482  -42.6359    1.7838 H         1 <0>         0.0312
     36 H10       7.8437  -43.4540    3.0797 H         1 <0>         0.0404
     37 H11      11.0282  -44.0907    0.9708 H         1 <0>         0.0361
     38 H12      11.9498  -45.3637    1.7472 H         1 <0>         0.1065
     39 H13      10.7190  -47.5595    5.0982 H         1 <0>         0.0653
     40 H14      11.9557  -48.8213    5.3215 H         1 <0>         0.0717
     41 H15       9.8312  -49.6673    6.1966 H         1 <0>         0.0948
     42 H16      10.2277  -50.5658    4.7343 H         1 <0>         0.0870
     43 H17       9.2331  -45.3882    2.6142 H         1 <0>         0.0594
     44 H18       8.1172  -46.2336    1.5597 H         1 <0>         0.0037
     45 H19       9.8682  -48.2313    0.7096 H         1 <0>         0.0935
     46 H20      11.5539  -47.7395    0.8714 H         1 <0>         0.1362
     47 H21       8.6239  -49.1920    3.4049 H         1 <0>         0.1083
     48 H22       7.7685  -49.7595    4.8703 H         1 <0>         0.1064
     49 H23       9.1661  -43.4204    0.9802 H         1 <0>         0.0673
     50 H24       9.8328  -46.1262   -0.2988 H         1 <0>         0.0388
     51 H25       9.6751  -47.2813    3.1110 H         1 <0>         0.3052
     52 H26       7.5226  -47.6968    5.5373 H         1 <0>         0.4597
     53 H27       8.0561  -47.1899    4.0507 H         1 <0>         0.4557
     54 H28       9.1248  -47.3114    5.3158 H         1 <0>         0.4646
@<TRIPOS>BOND
     1    1    2 ar
     2    1    4 ar
     3    2    5 ar
     4    3    4 ar
     5    3    6 ar
     6    3    7 1
     7    4   12 1
     8    5    6 ar
     9    5   25 1
    10    6   26 1
    11    7   22 1
    12    7   23 2
    13    8   13 1
    14    8   20 am
    15    8   24 2
    16    9   25 1
    17    9   26 1
    18   10   18 1
    19   11   18 1
    20   12   19 1
    21   13   14 1
    22   14   17 1
    23   15   18 1
    24   15   19 1
    25   16   19 1
    26   16   20 1
    27   17   21 1
    28    1   27 1
    29    2   28 1
    30    9   29 1
    31    9   30 1
    32   10   31 1
    33   10   32 1
    34   10   33 1
    35   11   34 1
    36   11   35 1
    37   11   36 1
    38   12   37 1
    39   12   38 1
    40   13   39 1
    41   13   40 1
    42   14   41 1
    43   14   42 1
    44   15   43 1
    45   15   44 1
    46   16   45 1
    47   16   46 1
    48   17   47 1
    49   17   48 1
    50   18   49 1
    51   19   50 1
    52   20   51 1
    53   21   52 1
    54   21   53 1
    55   21   54 1
