@<TRIPOS>MOLECULE
AVX17679_0_9
   19    20     0     0     0
SMALL
USER_CHARGES

@<TRIPOS>ATOM
      1 C1        9.1184  -44.9414   -0.8207 C.ar      1 <0>        -0.1785
      2 C2        9.0405  -43.6861   -1.4390 C.ar      1 <0>        -0.1133
      3 C3       10.3551  -45.5685   -0.6125 C.ar      1 <0>        -0.0449
      4 C4       10.1910  -43.0106   -1.8722 C.ar      1 <0>        -0.1456
      5 C5       11.5173  -44.9026   -1.0422 C.ar      1 <0>        -0.2073
      6 C6       11.4006  -43.6619   -1.6500 C.ar      1 <0>         0.0476
      7 C7       12.9067  -45.1376   -1.0433 C.2       1 <0>         0.4470
      8 C8       13.8577  -46.1678    0.9896 C.2       1 <0>         0.9239
      9 C9       13.6244  -46.3133   -0.5203 C.3       1 <0>        -0.2509
     10 N1       13.5962  -44.1329   -1.6026 N.2       1 <0>        -0.4224
     11 O1       12.8228  -46.2833    1.7088 O.co2     1 <0>        -0.8088
     12 O2       15.0569  -45.9546    1.3289 O.co2     1 <0>        -0.8355
     13 O3       12.6401  -43.2003   -1.9857 O.3       1 <0>        -0.0422
     14 H1        8.2051  -45.4406   -0.4962 H         1 <0>         0.1216
     15 H2        8.0664  -43.2261   -1.5865 H         1 <0>         0.1152
     16 H3       10.4012  -46.5425   -0.1312 H         1 <0>         0.1558
     17 H4       10.1404  -42.0385   -2.3521 H         1 <0>         0.1377
     18 H5       13.0698  -47.2569   -0.7065 H         1 <0>         0.0549
     19 H6       14.6025  -46.4561   -1.0237 H         1 <0>         0.0458
@<TRIPOS>BOND
     1    1    2 ar
     2    1    3 ar
     3    2    4 ar
     4    3    5 ar
     5    4    6 ar
     6    5    6 ar
     7    5    7 1
     8    6   13 1
     9    7    9 1
    10    7   10 2
    11    8    9 1
    12    8   11 1
    13    8   12 2
    14   10   13 1
    15    1   14 1
    16    2   15 1
    17    3   16 1
    18    4   17 1
    19    9   18 1
    20    9   19 1
