@<TRIPOS>MOLECULE
AVX15988_0_1
   19    20     0     0     0
SMALL
USER_CHARGES

@<TRIPOS>ATOM
      1 C1        8.6776  -40.9230   -0.2190 C.ar      1 <0>        -0.0813
      2 C2        7.6075  -41.3703    0.5606 C.ar      1 <0>        -0.1254
      3 C3        7.9953  -43.6582   -0.1366 C.ar      1 <0>        -0.0204
      4 C4        9.0813  -43.2330   -0.9327 C.ar      1 <0>         0.1242
      5 C5        9.4026  -41.8713   -0.9591 C.ar      1 <0>        -0.0955
      6 C6        7.2692  -42.7196    0.6026 C.ar      1 <0>         0.0184
      7 C7       10.7967  -43.3128   -2.3175 C.2       1 <0>         0.5754
      8 C8        7.6214  -45.1097   -0.0828 C.3       1 <0>        -0.0551
      9 N1        9.8885  -44.0457   -1.7158 N.2       1 <0>        -0.5971
     10 N2       11.7430  -43.8082   -3.1584 N.pl3     1 <0>        -0.8654
     11 S1       10.7557  -41.6309   -2.0005 S.3       1 <0>        -0.0753
     12 Cl1       5.9332  -43.1989    1.5897 Cl        1 <0>        -0.0943
     13 H1        8.9361  -39.8680   -0.2471 H         1 <0>         0.1442
     14 H2        7.0434  -40.6384    1.1353 H         1 <0>         0.1493
     15 H3        8.1672  -45.6041    0.7296 H         1 <0>         0.0549
     16 H4        6.5445  -45.2325    0.0844 H         1 <0>         0.0514
     17 H5        7.8573  -45.6122   -1.0289 H         1 <0>         0.0665
     18 H6       11.8308  -44.8149   -3.3380 H         1 <0>         0.4174
     19 H7       12.4645  -43.2061   -3.5713 H         1 <0>         0.4082
@<TRIPOS>BOND
     1    1    2 ar
     2    1    5 ar
     3    2    6 ar
     4    3    4 ar
     5    3    6 ar
     6    3    8 1
     7    4    5 ar
     8    4    9 1
     9    5   11 1
    10    6   12 1
    11    7    9 2
    12    7   10 1
    13    7   11 1
    14    1   13 1
    15    2   14 1
    16    8   15 1
    17    8   16 1
    18    8   17 1
    19   10   18 1
    20   10   19 1
