@<TRIPOS>MOLECULE
AVX17389_0_5
   24    25     0     0     0
SMALL
USER_CHARGES

@<TRIPOS>ATOM
      1 C1       22.7984  -38.0044   -8.8339 C.ar      1 <0>        -0.1559
      2 C2       22.4084  -37.2574   -7.7085 C.ar      1 <0>        -0.0870
      3 C3       22.1124  -39.1639   -9.1899 C.ar      1 <0>        -0.1148
      4 C4       21.3287  -37.6680   -6.9215 C.ar      1 <0>        -0.1054
      5 C5       21.0508  -39.5541   -8.3916 C.ar      1 <0>         0.0400
      6 C6       20.6691  -38.8231   -7.2901 C.ar      1 <0>         0.0796
      7 C7       20.9264  -36.8978   -5.7572 C.2       1 <0>         0.6570
      8 C8       21.0440  -37.8838   -2.1706 C.2       1 <0>         0.9045
      9 C9       19.3548  -40.5339   -7.4692 C.3       1 <0>         0.3234
     10 C10      20.7513  -36.8617   -3.2559 C.3       1 <0>        -0.0442
     11 N1       21.1209  -37.4901   -4.5036 N.am      1 <0>        -0.4999
     12 O1       20.9244  -37.4592   -0.9868 O.co2     1 <0>        -0.8382
     13 O2       20.4141  -35.7717   -5.8900 O.2       1 <0>        -0.6542
     14 O3       21.3592  -39.0340   -2.5870 O.co2     1 <0>        -0.8220
     15 O4       20.2709  -40.6544   -8.5770 O.3       1 <0>        -0.3489
     16 O5       19.6022  -39.3741   -6.6480 O.3       1 <0>        -0.3101
     17 H1       23.6403  -37.6700   -9.4349 H         1 <0>         0.1266
     18 H2       22.9605  -36.3540   -7.4583 H         1 <0>         0.1602
     19 H3       22.4167  -39.7361  -10.0588 H         1 <0>         0.1426
     20 H4       18.3320  -40.4749   -7.8626 H         1 <0>         0.0742
     21 H5       19.4402  -41.4304   -6.8445 H         1 <0>         0.0709
     22 H6       21.3357  -35.9491   -3.1016 H         1 <0>         0.0274
     23 H7       19.6891  -36.5939   -3.2634 H         1 <0>         0.0418
     24 H8       21.4842  -38.4361   -4.4539 H         1 <0>         0.3322
@<TRIPOS>BOND
     1    1    2 ar
     2    1    3 ar
     3    2    4 ar
     4    3    5 ar
     5    4    6 ar
     6    4    7 1
     7    5    6 ar
     8    5   15 1
     9    6   16 1
    10    7   11 am
    11    7   13 2
    12    8   10 1
    13    8   12 1
    14    8   14 2
    15    9   15 1
    16    9   16 1
    17   10   11 1
    18    1   17 1
    19    2   18 1
    20    3   19 1
    21    9   20 1
    22    9   21 1
    23   10   22 1
    24   10   23 1
    25   11   24 1
