@<TRIPOS>MOLECULE
AVX17631_0_4
   16    17     0     0     0
SMALL
USER_CHARGES

@<TRIPOS>ATOM
      1 C1        9.4736  -25.7338   -1.0617 C.ar      1 <0>        -0.1581
      2 C2        8.7823  -26.1412    0.0863 C.ar      1 <0>        -0.0926
      3 C3        9.0821  -24.5929   -1.7764 C.ar      1 <0>        -0.0591
      4 C4        7.6764  -25.4273    0.5634 C.ar      1 <0>        -0.1241
      5 C5        7.9745  -23.8673   -1.3095 C.ar      1 <0>        -0.2434
      6 C6        7.3155  -24.3009   -0.1702 C.ar      1 <0>         0.0673
      7 C7        7.2571  -22.7157   -1.6867 C.2       1 <0>         0.5500
      8 N1        6.2402  -22.4539   -0.8568 N.2       1 <0>        -0.4587
      9 N2        7.5961  -21.9845   -2.7810 N.pl3     1 <0>        -0.8581
     10 O1        6.2798  -23.4592    0.1021 O.3       1 <0>        -0.0110
     11 H1       10.3287  -26.3116   -1.4067 H         1 <0>         0.1380
     12 H2        9.1123  -27.0299    0.6189 H         1 <0>         0.1390
     13 H3        9.6294  -24.2887   -2.6649 H         1 <0>         0.1389
     14 H4        7.1341  -25.7355    1.4506 H         1 <0>         0.1580
     15 H5        8.4190  -22.2140   -3.3525 H         1 <0>         0.4032
     16 H6        7.1004  -21.1196   -3.0259 H         1 <0>         0.4108
@<TRIPOS>BOND
     1    1    2 ar
     2    1    3 ar
     3    2    4 ar
     4    3    5 ar
     5    4    6 ar
     6    5    6 ar
     7    5    7 1
     8    6   10 1
     9    7    8 2
    10    7    9 1
    11    8   10 1
    12    1   11 1
    13    2   12 1
    14    3   13 1
    15    4   14 1
    16    9   15 1
    17    9   16 1
