@<TRIPOS>MOLECULE
AVX17286_0_3
   33    36     0     0     0
SMALL
USER_CHARGES

@<TRIPOS>ATOM
      1 C1       10.4503  -41.5902   -1.4485 C.ar      1 <0>        -0.1599
      2 C2        9.1873  -41.1825   -0.9798 C.ar      1 <0>        -0.1121
      3 C3       10.9121  -42.8936   -1.2312 C.ar      1 <0>        -0.0508
      4 C4       12.3472  -45.2517   -2.3839 C.ar      1 <0>        -0.1342
      5 C5        8.3613  -42.0696   -0.2848 C.ar      1 <0>        -0.1770
      6 C6       13.4908  -44.9053   -3.1083 C.ar      1 <0>        -0.1505
      7 C7       10.0890  -43.7659   -0.5424 C.ar      1 <0>        -0.0692
      8 C8       12.4448  -45.6536   -1.0395 C.ar      1 <0>        -0.0910
      9 C9       13.6874  -45.7138   -0.4042 C.ar      1 <0>        -0.0561
     10 C10       8.8365  -43.3509   -0.0811 C.ar      1 <0>         0.0395
     11 C11      14.7055  -44.9733   -2.4577 C.ar      1 <0>         0.0398
     12 C12      14.8012  -45.3665   -1.1418 C.ar      1 <0>         0.0579
     13 C13      10.2187  -45.1620   -0.1351 C.2       1 <0>        -0.1352
     14 C14       8.9684  -45.5562    0.5977 C.2       1 <0>         0.7028
     15 C15      11.2380  -45.9975   -0.3438 C.2       1 <0>         0.0496
     16 C16      13.8273  -46.1308    1.0029 C.2       1 <0>         0.9231
     17 C17      16.7888  -44.9253   -1.8757 C.3       1 <0>         0.3177
     18 N1        8.1849  -44.3975    0.5836 N.am      1 <0>        -0.4700
     19 O1       14.9829  -46.0402    1.5617 O.co2     1 <0>        -0.7998
     20 O2        8.7190  -46.6452    1.0836 O.2       1 <0>        -0.6172
     21 O3       12.7892  -46.5712    1.6237 O.co2     1 <0>        -0.8046
     22 O4       15.9186  -44.6749   -2.9983 O.3       1 <0>        -0.3570
     23 O5       16.0861  -45.3639   -0.6941 O.3       1 <0>        -0.3078
     24 H1       11.0747  -40.8807   -1.9872 H         1 <0>         0.1275
     25 H2        8.8529  -40.1640   -1.1625 H         1 <0>         0.1127
     26 H3       11.8868  -43.1968   -1.5969 H         1 <0>         0.1607
     27 H4       11.3791  -45.2052   -2.8782 H         1 <0>         0.1240
     28 H5        7.3885  -41.7569    0.0766 H         1 <0>         0.1234
     29 H6       13.4202  -44.5947   -4.1446 H         1 <0>         0.1338
     30 H7       11.1340  -47.0216    0.0172 H         1 <0>         0.1585
     31 H8       17.5132  -45.6976   -2.1587 H         1 <0>         0.0525
     32 H9       17.3317  -44.0025   -1.6398 H         1 <0>         0.0520
     33 H10       7.2644  -44.3251    1.0009 H         1 <0>         0.3169
@<TRIPOS>BOND
     1    1    2 ar
     2    1    3 ar
     3    2    5 ar
     4    3    7 ar
     5    4    6 ar
     6    4    8 ar
     7    5   10 ar
     8    6   11 ar
     9    7   10 ar
    10    7   13 1
    11    8    9 ar
    12    8   15 1
    13    9   12 ar
    14    9   16 1
    15   10   18 1
    16   11   12 ar
    17   11   22 1
    18   12   23 1
    19   13   14 1
    20   13   15 2
    21   14   18 am
    22   14   20 2
    23   16   19 1
    24   16   21 2
    25   17   22 1
    26   17   23 1
    27    1   24 1
    28    2   25 1
    29    3   26 1
    30    4   27 1
    31    5   28 1
    32    6   29 1
    33   15   30 1
    34   17   31 1
    35   17   32 1
    36   18   33 1
