@<TRIPOS>MOLECULE
AVX17375_3_8
   38    41     0     0     0
SMALL
USER_CHARGES

@<TRIPOS>ATOM
      1 C1        9.5143  -41.5510   -0.7899 C.ar      1 <0>        -0.1506
      2 C2       10.6637  -41.9683   -1.4776 C.ar      1 <0>        -0.1322
      3 C3        8.8849  -42.3998    0.1221 C.ar      1 <0>        -0.1294
      4 C4       11.2001  -43.2403   -1.2635 C.ar      1 <0>        -0.1003
      5 C5       12.8313  -45.3664   -2.9129 C.ar      1 <0>        -0.1452
      6 C6       14.0223  -44.8856   -3.4620 C.ar      1 <0>        -0.1517
      7 C7       13.9582  -45.8740   -0.8075 C.ar      1 <0>        -0.0679
      8 C8        9.4163  -43.6642    0.3187 C.ar      1 <0>        -0.1014
      9 C9       10.5635  -44.0854   -0.3673 C.ar      1 <0>        -0.0503
     10 C10      12.7996  -45.8580   -1.5939 C.ar      1 <0>        -0.0750
     11 C11      15.1483  -44.8762   -2.6416 C.ar      1 <0>         0.0304
     12 C12      15.1210  -45.3934   -1.3733 C.ar      1 <0>         0.0585
     13 C13      13.9497  -46.3830    0.5765 C.2       1 <0>         0.9211
     14 C14       8.9290  -44.7211    1.2639 C.3       1 <0>        -0.0690
     15 C15      17.1409  -44.7563   -1.8169 C.3       1 <0>         0.3190
     16 C16      10.9591  -45.4699    0.0698 C.3       1 <0>        -0.0155
     17 C17       9.6414  -45.9683    0.7097 C.3       1 <0>         0.1380
     18 C18      11.4913  -46.3656   -1.0480 C.3       1 <0>        -0.0181
     19 O1       13.6651  -45.5712    1.5373 O.co2     1 <0>        -0.8155
     20 O2       14.2274  -47.6237    0.7810 O.co2     1 <0>        -0.8185
     21 O3       16.3970  -44.5156   -3.0447 O.3       1 <0>        -0.3603
     22 O4       16.3392  -45.3303   -0.7639 O.3       1 <0>        -0.3145
     23 O5        8.8047  -46.5943   -0.2703 O.3       1 <0>        -0.5931
     24 H1        9.1153  -40.5558   -0.9649 H         1 <0>         0.1137
     25 H2       11.1453  -41.2915   -2.1781 H         1 <0>         0.1227
     26 H3        8.0024  -42.0721    0.6612 H         1 <0>         0.1150
     27 H4       12.0983  -43.5472   -1.7884 H         1 <0>         0.1670
     28 H5       11.9253  -45.3573   -3.5185 H         1 <0>         0.1308
     29 H6       14.0512  -44.5059   -4.4789 H         1 <0>         0.1271
     30 H7        9.2728  -44.4849    2.2801 H         1 <0>         0.0546
     31 H8        7.8388  -44.8137    1.2347 H         1 <0>         0.0386
     32 H9       17.9555  -45.4493   -2.0559 H         1 <0>         0.0472
     33 H10      17.5742  -43.8159   -1.4535 H         1 <0>         0.0483
     34 H11      11.6991  -45.3565    0.8498 H         1 <0>         0.1102
     35 H12       9.8327  -46.7095    1.4938 H         1 <0>         0.0437
     36 H13      10.7514  -46.4303   -1.8586 H         1 <0>         0.0856
     37 H14      11.6189  -47.3874   -0.6719 H         1 <0>         0.0515
     38 H15       7.9842  -46.8349    0.1854 H         1 <0>         0.3852
@<TRIPOS>BOND
     1    1    2 ar
     2    1    3 ar
     3    2    4 ar
     4    3    8 ar
     5    4    9 ar
     6    5    6 ar
     7    5   10 ar
     8    6   11 ar
     9    7   10 ar
    10    7   12 ar
    11    7   13 1
    12    8    9 ar
    13    8   14 1
    14    9   16 1
    15   10   18 1
    16   11   12 ar
    17   11   21 1
    18   12   22 1
    19   13   19 1
    20   13   20 2
    21   14   17 1
    22   15   21 1
    23   15   22 1
    24   16   17 1
    25   16   18 1
    26   17   23 1
    27    1   24 1
    28    2   25 1
    29    3   26 1
    30    4   27 1
    31    5   28 1
    32    6   29 1
    33   14   30 1
    34   14   31 1
    35   15   32 1
    36   15   33 1
    37   16   34 1
    38   17   35 1
    39   18   36 1
    40   18   37 1
    41   23   38 1
