@<TRIPOS>MOLECULE
AVX17542_0_14
   57    58     0     0     0
SMALL
USER_CHARGES

@<TRIPOS>ATOM
      1 C1        0.2187  -24.0986   -0.6323 C.ar      1 <0>        -0.1468
      2 C2       -0.3383  -22.8205   -0.5402 C.ar      1 <0>        -0.1457
      3 C3        0.1359  -24.3540    1.7888 C.ar      1 <0>        -0.0710
      4 C4        0.4545  -24.8610    0.5254 C.ar      1 <0>        -0.0777
      5 C5       -0.6438  -22.3432    0.7191 C.ar      1 <0>         0.0365
      6 C6       -0.4131  -23.0895    1.8523 C.ar      1 <0>         0.0659
      7 C7        0.3733  -25.1333    3.0150 C.2       1 <0>         0.9203
      8 C8        3.6924  -23.0005    0.9831 C.2       1 <0>         0.6530
      9 C9       -1.2758  -21.1937    2.4421 C.3       1 <0>         0.3178
     10 C10       1.8858  -27.9302   -3.0144 C.3       1 <0>        -0.0873
     11 C11       2.6298  -29.9634   -1.7608 C.3       1 <0>        -0.0893
     12 C12       1.0587  -26.2372    0.3728 C.3       1 <0>        -0.0331
     13 C13       3.3046  -21.5957    0.5512 C.3       1 <0>        -0.1687
     14 C14       3.7856  -21.2282   -0.8515 C.3       1 <0>        -0.0702
     15 C15       3.3415  -19.8241   -1.2713 C.3       1 <0>        -0.1127
     16 C16       2.8679  -27.7117   -0.6660 C.3       1 <0>        -0.0690
     17 C17       3.4373  -25.3752    0.2647 C.3       1 <0>         0.0690
     18 C18       3.9408  -19.4443   -2.6174 C.3       1 <0>         0.1025
     19 C19       2.0151  -28.5661   -1.6296 C.3       1 <0>        -0.0711
     20 C20       2.3831  -26.2585   -0.4322 C.3       1 <0>        -0.0761
     21 N1        3.1998  -23.9662    0.1077 N.am      1 <0>        -0.5370
     22 N2        3.5722  -18.0440   -2.9356 N.4       1 <0>        -0.8412
     23 O1       -0.5113  -25.9944    3.3822 O.co2     1 <0>        -0.7954
     24 O2        1.4577  -24.9278    3.6806 O.co2     1 <0>        -0.8406
     25 O3        4.3767  -23.2333    1.9765 O.2       1 <0>        -0.6136
     26 O4       -1.1894  -21.1289    1.0030 O.3       1 <0>        -0.3552
     27 O5       -0.7853  -22.4356    2.9876 O.3       1 <0>        -0.3125
     28 H1        0.4696  -24.4999   -1.6123 H         1 <0>         0.1157
     29 H2       -0.5219  -22.2294   -1.4303 H         1 <0>         0.1285
     30 H3       -0.6920  -20.3676    2.8675 H         1 <0>         0.0502
     31 H4       -2.3248  -21.0712    2.7354 H         1 <0>         0.0566
     32 H5        2.8677  -27.7815   -3.4756 H         1 <0>         0.0160
     33 H6        1.2920  -28.5670   -3.6816 H         1 <0>         0.0275
     34 H7        1.3832  -26.9598   -2.9620 H         1 <0>         0.0425
     35 H8        3.6416  -29.9056   -2.1756 H         1 <0>         0.0169
     36 H9        2.0308  -30.5918   -2.4307 H         1 <0>         0.0295
     37 H10       2.6907  -30.4641   -0.7885 H         1 <0>         0.0394
     38 H11       0.3108  -26.8716   -0.1248 H         1 <0>         0.0392
     39 H12       1.2135  -26.6842    1.3634 H         1 <0>         0.1012
     40 H13       3.6832  -20.8722    1.2844 H         1 <0>         0.0564
     41 H14       2.2085  -21.5470    0.5731 H         1 <0>         0.0612
     42 H15       4.8781  -21.3072   -0.9117 H         1 <0>         0.0744
     43 H16       3.3726  -21.9570   -1.5618 H         1 <0>         0.0825
     44 H17       2.2460  -19.7903   -1.3316 H         1 <0>         0.0651
     45 H18       3.6434  -19.0899   -0.5135 H         1 <0>         0.0619
     46 H19       2.9283  -28.2270    0.3020 H         1 <0>         0.0551
     47 H20       3.8934  -27.6844   -1.0557 H         1 <0>         0.0069
     48 H21       3.4567  -25.5793    1.3412 H         1 <0>         0.0957
     49 H22       4.4419  -25.5815   -0.1157 H         1 <0>         0.1124
     50 H23       3.5527  -20.0674   -3.4302 H         1 <0>         0.1181
     51 H24       5.0341  -19.4896   -2.6060 H         1 <0>         0.1157
     52 H25       1.0100  -28.6938   -1.2117 H         1 <0>         0.0668
     53 H26       2.1868  -25.8034   -1.4114 H         1 <0>         0.0425
     54 H27       2.6286  -23.6648   -0.6816 H         1 <0>         0.2991
     55 H28       2.5638  -17.8942   -2.8204 H         1 <0>         0.4577
     56 H29       3.8164  -17.8115   -3.9044 H         1 <0>         0.4578
     57 H30       4.0626  -17.3851   -2.3188 H         1 <0>         0.4568
@<TRIPOS>BOND
     1    1    2 ar
     2    1    4 ar
     3    2    5 ar
     4    3    4 ar
     5    3    6 ar
     6    3    7 1
     7    4   12 1
     8    5    6 ar
     9    5   26 1
    10    6   27 1
    11    7   23 1
    12    7   24 2
    13    8   13 1
    14    8   21 am
    15    8   25 2
    16    9   26 1
    17    9   27 1
    18   10   19 1
    19   11   19 1
    20   12   20 1
    21   13   14 1
    22   14   15 1
    23   15   18 1
    24   16   19 1
    25   16   20 1
    26   17   20 1
    27   17   21 1
    28   18   22 1
    29    1   28 1
    30    2   29 1
    31    9   30 1
    32    9   31 1
    33   10   32 1
    34   10   33 1
    35   10   34 1
    36   11   35 1
    37   11   36 1
    38   11   37 1
    39   12   38 1
    40   12   39 1
    41   13   40 1
    42   13   41 1
    43   14   42 1
    44   14   43 1
    45   15   44 1
    46   15   45 1
    47   16   46 1
    48   16   47 1
    49   17   48 1
    50   17   49 1
    51   18   50 1
    52   18   51 1
    53   19   52 1
    54   20   53 1
    55   21   54 1
    56   22   55 1
    57   22   56 1
    58   22   57 1
