@<TRIPOS>MOLECULE
AVX101124_1_6
   57    60     0     0     0
SMALL
USER_CHARGES

@<TRIPOS>ATOM
      1 C1       10.6867  -49.0819   -1.5955 C.ar      1 <0>        -0.1296
      2 C2        9.8567  -49.9580   -0.8821 C.ar      1 <0>        -0.1365
      3 C3       10.9190  -47.7827   -1.1295 C.ar      1 <0>        -0.0819
      4 C4       11.8647  -44.6307   -1.7795 C.ar      1 <0>        -0.1480
      5 C5        9.2488  -49.5465    0.3073 C.ar      1 <0>        -0.1289
      6 C6       12.8106  -44.6202   -2.8090 C.ar      1 <0>        -0.1532
      7 C7       10.3092  -47.3782    0.0525 C.ar      1 <0>        -0.0302
      8 C8       12.2069  -45.0996   -0.4990 C.ar      1 <0>        -0.0810
      9 C9       13.4988  -45.5637   -0.2335 C.ar      1 <0>        -0.0537
     10 C10       9.4778  -48.2524    0.7592 C.ar      1 <0>        -0.0916
     11 C11      14.0789  -45.0838   -2.5207 C.ar      1 <0>         0.0423
     12 C12      14.4137  -45.5426   -1.2673 C.ar      1 <0>         0.0625
     13 C13      10.3563  -46.0983    0.7629 C.2       1 <0>        -0.1024
     14 C14      11.1976  -45.0872    0.5190 C.2       1 <0>        -0.0149
     15 C15      13.8923  -46.0627    1.0961 C.2       1 <0>         0.9231
     16 C16       8.2455  -44.0341    1.0874 C.2       1 <0>         0.6579
     17 C17       8.9632  -47.6379    2.0300 C.3       1 <0>        -0.0475
     18 C18      16.1551  -45.6997   -2.5456 C.3       1 <0>         0.3171
     19 C19       9.3217  -46.1466    1.8673 C.3       1 <0>         0.1431
     20 C20       6.8748  -43.4694    0.7467 C.3       1 <0>        -0.1660
     21 C21       6.2210  -42.6969    1.8944 C.3       1 <0>        -0.0711
     22 C22       6.1688  -43.5146    3.1896 C.3       1 <0>        -0.0931
     23 C23       5.5204  -44.8832    2.9533 C.3       1 <0>        -0.1193
     24 C24       5.5407  -45.7846    4.1815 C.3       1 <0>         0.1063
     25 N1        8.1699  -45.3679    1.4674 N.am      1 <0>        -0.5502
     26 N2        6.9153  -45.9033    4.7226 N.4       1 <0>        -0.8412
     27 O1       15.1285  -46.3587    1.3038 O.co2     1 <0>        -0.8082
     28 O2       12.9860  -46.1852    2.0028 O.co2     1 <0>        -0.7953
     29 O3        9.2757  -43.3675    1.0454 O.2       1 <0>        -0.6137
     30 O4       15.1246  -45.1480   -3.3909 O.3       1 <0>        -0.3547
     31 O5       15.7110  -45.9521   -1.1964 O.3       1 <0>        -0.3043
     32 H1       11.1536  -49.4175   -2.5195 H         1 <0>         0.1279
     33 H2        9.6902  -50.9662   -1.2567 H         1 <0>         0.1164
     34 H3       11.5612  -47.1151   -1.6941 H         1 <0>         0.1581
     35 H4       10.8583  -44.2696   -1.9859 H         1 <0>         0.1092
     36 H5        8.6158  -50.2292    0.8641 H         1 <0>         0.1200
     37 H6       12.5514  -44.2592   -3.7975 H         1 <0>         0.1322
     38 H7       11.1241  -44.2064    1.1584 H         1 <0>         0.1371
     39 H8        7.8880  -47.8021    2.1567 H         1 <0>         0.0398
     40 H9        9.5035  -48.0726    2.8786 H         1 <0>         0.0809
     41 H10      16.5032  -46.6449   -2.9846 H         1 <0>         0.0568
     42 H11      16.9953  -44.9968   -2.5118 H         1 <0>         0.0554
     43 H12       9.6887  -45.7230    2.8089 H         1 <0>         0.1009
     44 H13       6.9550  -42.8308   -0.1407 H         1 <0>         0.0630
     45 H14       6.2373  -44.3233    0.4833 H         1 <0>         0.0508
     46 H15       6.8026  -41.7839    2.0753 H         1 <0>         0.0674
     47 H16       5.2096  -42.3775    1.6133 H         1 <0>         0.0795
     48 H17       5.5956  -42.9615    3.9462 H         1 <0>         0.0143
     49 H18       7.1825  -43.6470    3.5831 H         1 <0>         0.0579
     50 H19       4.4743  -44.7336    2.6575 H         1 <0>         0.0764
     51 H20       6.0182  -45.3892    2.1146 H         1 <0>         0.1145
     52 H21       4.9078  -45.3966    4.9870 H         1 <0>         0.1061
     53 H22       5.2213  -46.7996    3.9245 H         1 <0>         0.1118
     54 H23       7.2602  -45.8196    1.4642 H         1 <0>         0.3074
     55 H24       7.5318  -45.1882    4.3215 H         1 <0>         0.4653
     56 H25       7.3197  -46.8244    4.5076 H         1 <0>         0.4589
     57 H26       6.9201  -45.7867    5.7422 H         1 <0>         0.4561
@<TRIPOS>BOND
     1    1    2 ar
     2    1    3 ar
     3    2    5 ar
     4    3    7 ar
     5    4    6 ar
     6    4    8 ar
     7    5   10 ar
     8    6   11 ar
     9    7   10 ar
    10    7   13 1
    11    8    9 ar
    12    8   14 1
    13    9   12 ar
    14    9   15 1
    15   10   17 1
    16   11   12 ar
    17   11   30 1
    18   12   31 1
    19   13   14 2
    20   13   19 1
    21   15   27 1
    22   15   28 2
    23   16   20 1
    24   16   25 am
    25   16   29 2
    26   17   19 1
    27   18   30 1
    28   18   31 1
    29   19   25 1
    30   20   21 1
    31   21   22 1
    32   22   23 1
    33   23   24 1
    34   24   26 1
    35    1   32 1
    36    2   33 1
    37    3   34 1
    38    4   35 1
    39    5   36 1
    40    6   37 1
    41   14   38 1
    42   17   39 1
    43   17   40 1
    44   18   41 1
    45   18   42 1
    46   19   43 1
    47   20   44 1
    48   20   45 1
    49   21   46 1
    50   21   47 1
    51   22   48 1
    52   22   49 1
    53   23   50 1
    54   23   51 1
    55   24   52 1
    56   24   53 1
    57   25   54 1
    58   26   55 1
    59   26   56 1
    60   26   57 1
