@<TRIPOS>MOLECULE
AVX17587_2_22
   59    62     0     0     0
SMALL
USER_CHARGES

@<TRIPOS>ATOM
      1 C1       -1.2619  -22.2775   -3.1325 C.ar      1 <0>        -0.1342
      2 C2       -1.1281  -23.6091   -3.5564 C.ar      1 <0>        -0.1336
      3 C3       -0.6389  -21.8376   -1.9628 C.ar      1 <0>        -0.1250
      4 C4       -0.3706  -24.5199   -2.8153 C.ar      1 <0>        -0.1121
      5 C5        1.5063  -27.8999   -0.1092 C.ar      1 <0>        -0.1704
      6 C6        2.2476  -28.9811    0.3760 C.ar      1 <0>        -0.1562
      7 C7        1.2899  -26.9861    2.1371 C.ar      1 <0>        -0.0701
      8 C8        0.1201  -22.7447   -1.2403 C.ar      1 <0>        -0.0777
      9 C9        0.2488  -24.0747   -1.6580 C.ar      1 <0>        -0.0761
     10 C10       1.0302  -26.9081    0.7664 C.ar      1 <0>        -0.0703
     11 C11       2.4902  -29.0345    1.7334 C.ar      1 <0>         0.0179
     12 C12       2.0243  -28.0638    2.5905 C.ar      1 <0>         0.0617
     13 C13       0.8024  -25.9603    3.0733 C.2       1 <0>         0.9218
     14 C14       4.1300  -22.8926    0.2654 C.2       1 <0>         0.6512
     15 C15       0.8429  -22.5142    0.0511 C.3       1 <0>        -0.0363
     16 C16       3.1118  -29.5378    3.7450 C.3       1 <0>         0.3190
     17 C17       1.0924  -24.8686   -0.6966 C.3       1 <0>        -0.0243
     18 C18       1.7851  -23.7359    0.1060 C.3       1 <0>         0.0717
     19 C19       0.2358  -25.7630    0.1947 C.3       1 <0>        -0.0370
     20 C20       5.3457  -22.6289   -0.6084 C.3       1 <0>        -0.1654
     21 C21       5.0880  -21.6304   -1.7375 C.3       1 <0>        -0.0755
     22 C22       4.5434  -20.2931   -1.2225 C.3       1 <0>        -0.0921
     23 C23       4.3775  -19.2866   -2.3667 C.3       1 <0>        -0.1198
     24 C24       3.9717  -17.8946   -1.8966 C.3       1 <0>         0.1060
     25 N1        3.0759  -23.4131   -0.4716 N.am      1 <0>        -0.5298
     26 N2        3.6743  -17.0160   -3.0533 N.4       1 <0>        -0.8417
     27 O1        1.4927  -24.8842    3.2281 O.co2     1 <0>        -0.8121
     28 O2       -0.2982  -26.1728    3.7070 O.co2     1 <0>        -0.7861
     29 O3        4.1001  -22.6474    1.4683 O.2       1 <0>        -0.5843
     30 O4        3.1898  -30.0056    2.3830 O.3       1 <0>        -0.3676
     31 O5        2.3738  -28.3056    3.8838 O.3       1 <0>        -0.3075
     32 H1       -1.8510  -21.5813   -3.7253 H         1 <0>         0.1213
     33 H2       -1.6133  -23.9309   -4.4737 H         1 <0>         0.1276
     34 H3       -0.7492  -20.8096   -1.6342 H         1 <0>         0.1266
     35 H4       -0.2718  -25.5464   -3.1498 H         1 <0>         0.1355
     36 H5        1.2996  -27.8324   -1.1750 H         1 <0>         0.1218
     37 H6        2.6166  -29.7479   -0.2956 H         1 <0>         0.1293
     38 H7        1.3935  -21.5661    0.0084 H         1 <0>         0.0478
     39 H8        0.1640  -22.5018    0.9111 H         1 <0>         0.0718
     40 H9        2.6260  -30.3098    4.3536 H         1 <0>         0.0614
     41 H10       4.1295  -29.3826    4.1212 H         1 <0>         0.0390
     42 H11       1.8012  -25.4652   -1.2508 H         1 <0>         0.0450
     43 H12       1.9530  -24.0272    1.1327 H         1 <0>         0.1376
     44 H13      -0.6128  -26.1508   -0.3803 H         1 <0>         0.0451
     45 H14      -0.1946  -25.1677    1.0083 H         1 <0>         0.1126
     46 H15       6.1764  -22.2859    0.0195 H         1 <0>         0.0814
     47 H16       5.6383  -23.5915   -1.0460 H         1 <0>         0.0437
     48 H17       6.0347  -21.4484   -2.2608 H         1 <0>         0.0683
     49 H18       4.3948  -22.0571   -2.4723 H         1 <0>         0.0850
     50 H19       5.2308  -19.8842   -0.4722 H         1 <0>         0.0064
     51 H20       3.5816  -20.4549   -0.7253 H         1 <0>         0.0623
     52 H21       5.3286  -19.1995   -2.9059 H         1 <0>         0.0749
     53 H22       3.6406  -19.6648   -3.0860 H         1 <0>         0.1167
     54 H23       3.0759  -17.9154   -1.2696 H         1 <0>         0.1036
     55 H24       4.7879  -17.4178   -1.3459 H         1 <0>         0.1122
     56 H25       3.2150  -23.5761   -1.4647 H         1 <0>         0.3015
     57 H26       3.5712  -17.5633   -3.9150 H         1 <0>         0.4614
     58 H27       4.4274  -16.3348   -3.2018 H         1 <0>         0.4624
     59 H28       2.8029  -16.4941   -2.9059 H         1 <0>         0.4540
@<TRIPOS>BOND
     1    1    2 ar
     2    1    3 ar
     3    2    4 ar
     4    3    8 ar
     5    4    9 ar
     6    5    6 ar
     7    5   10 ar
     8    6   11 ar
     9    7   10 ar
    10    7   12 ar
    11    7   13 1
    12    8    9 ar
    13    8   15 1
    14    9   17 1
    15   10   19 1
    16   11   12 ar
    17   11   30 1
    18   12   31 1
    19   13   27 1
    20   13   28 2
    21   14   20 1
    22   14   25 am
    23   14   29 2
    24   15   18 1
    25   16   30 1
    26   16   31 1
    27   17   18 1
    28   17   19 1
    29   18   25 1
    30   20   21 1
    31   21   22 1
    32   22   23 1
    33   23   24 1
    34   24   26 1
    35    1   32 1
    36    2   33 1
    37    3   34 1
    38    4   35 1
    39    5   36 1
    40    6   37 1
    41   15   38 1
    42   15   39 1
    43   16   40 1
    44   16   41 1
    45   17   42 1
    46   18   43 1
    47   19   44 1
    48   19   45 1
    49   20   46 1
    50   20   47 1
    51   21   48 1
    52   21   49 1
    53   22   50 1
    54   22   51 1
    55   23   52 1
    56   23   53 1
    57   24   54 1
    58   24   55 1
    59   25   56 1
    60   26   57 1
    61   26   58 1
    62   26   59 1
