@<TRIPOS>MOLECULE
AVX101122_0_4
   61    63     0     0     0
SMALL
USER_CHARGES

@<TRIPOS>ATOM
      1 C1        6.0051  -42.6229    2.1534 C.ar      1 <0>        -0.1039
      2 C2        6.7927  -42.3159    1.0439 C.ar      1 <0>        -0.1129
      3 C3       11.7058  -45.0544   -2.7409 C.ar      1 <0>        -0.1175
      4 C4        6.0274  -43.9132    2.6878 C.ar      1 <0>        -0.0979
      5 C5        7.6027  -43.2990    0.4686 C.ar      1 <0>        -0.1030
      6 C6       10.9305  -45.6724   -1.7599 C.ar      1 <0>        -0.1753
      7 C7        8.8648  -49.0499    3.2649 C.ar      1 <0>        -0.0948
      8 C8        9.7235  -48.2689    5.3846 C.ar      1 <0>        -0.0706
      9 C9       13.0915  -44.9588   -2.5785 C.ar      1 <0>        -0.1985
     10 C10      10.0754  -49.7085    3.0208 C.ar      1 <0>        -0.1653
     11 C11      10.9341  -48.9274    5.1405 C.ar      1 <0>        -0.2078
     12 C12       6.8372  -44.8964    2.1126 C.ar      1 <0>        -0.1282
     13 C13      12.9266  -46.0991   -0.4540 C.ar      1 <0>        -0.0915
     14 C14       8.6889  -48.3302    4.4469 C.ar      1 <0>        -0.1846
     15 C15       7.6249  -44.5894    1.0031 C.ar      1 <0>        -0.1161
     16 C16      11.5409  -46.1947   -0.6164 C.ar      1 <0>        -0.1424
     17 C17      11.1101  -49.6472    3.9586 C.ar      1 <0>         0.1531
     18 C18      13.7018  -45.4811   -1.4351 C.ar      1 <0>         0.1401
     19 C19       6.8407  -46.2358    2.6900 C.2       1 <0>         0.6606
     20 C20      13.5775  -46.6504    0.7544 C.2       1 <0>         0.9187
     21 C21      10.4820  -44.6150    1.4968 C.3       1 <0>         0.0605
     22 C22      12.4017  -51.0076    2.4913 C.3       1 <0>         0.1059
     23 C23      15.7611  -44.6866   -2.3262 C.3       1 <0>         0.1094
     24 C24       7.3856  -47.6216    4.7097 C.3       1 <0>         0.1465
     25 C25       8.5046  -45.6274    0.3640 C.3       1 <0>         0.1571
     26 C26      10.6818  -46.8538    0.4221 C.3       1 <0>         0.1771
     27 N1        7.2997  -46.3590    4.0072 N.am      1 <0>        -0.5459
     28 N2        9.7732  -45.8888    1.1347 N.4       1 <0>        -0.6801
     29 O1       13.6884  -45.8960    1.7894 O.co2     1 <0>        -0.7681
     30 O2        6.4681  -47.2112    2.0165 O.2       1 <0>        -0.6284
     31 O3       14.0091  -47.8641    0.7264 O.co2     1 <0>        -0.8476
     32 O4       12.2906  -50.2910    3.7199 O.3       1 <0>        -0.3200
     33 O5       15.0571  -45.3770   -1.2964 O.3       1 <0>        -0.2868
     34 H1        5.3739  -41.8575    2.6011 H         1 <0>         0.1535
     35 H2        6.7743  -41.3113    0.6274 H         1 <0>         0.1490
     36 H3       11.2307  -44.6477   -3.6312 H         1 <0>         0.1278
     37 H4        5.4084  -44.1404    3.5521 H         1 <0>         0.1526
     38 H5        8.2122  -43.0493   -0.3959 H         1 <0>         0.1504
     39 H6        9.8517  -45.7417   -1.8959 H         1 <0>         0.1327
     40 H7        8.0640  -49.1030    2.5290 H         1 <0>         0.1258
     41 H8        9.5959  -47.7096    6.3080 H         1 <0>         0.1454
     42 H9       13.6894  -44.4761   -3.3467 H         1 <0>         0.1346
     43 H10      10.2073  -50.2679    2.0987 H         1 <0>         0.1548
     44 H11      11.7367  -48.8749    5.8745 H         1 <0>         0.1528
     45 H12      10.7815  -44.1243    0.5690 H         1 <0>         0.1761
     46 H13       9.7818  -43.9924    2.0607 H         1 <0>         0.0620
     47 H14      11.3559  -44.8786    2.1026 H         1 <0>         0.0988
     48 H15      13.3924  -51.4737    2.4273 H         1 <0>         0.0751
     49 H16      12.2521  -50.3198    1.6533 H         1 <0>         0.0276
     50 H17      11.6332  -51.7840    2.4622 H         1 <0>         0.0648
     51 H18      16.8317  -44.6756   -2.0932 H         1 <0>         0.0714
     52 H19      15.3792  -43.6628   -2.4059 H         1 <0>         0.0265
     53 H20      15.6033  -45.2060   -3.2742 H         1 <0>         0.0248
     54 H21       6.5374  -48.2393    4.3927 H         1 <0>         0.0601
     55 H22       7.2587  -47.4188    5.7783 H         1 <0>         0.0728
     56 H23       7.9853  -46.5881    0.2801 H         1 <0>         0.1003
     57 H24       8.8060  -45.3218   -0.6439 H         1 <0>         0.1107
     58 H25      10.0364  -47.6182   -0.0246 H         1 <0>         0.1428
     59 H26      11.2965  -47.3409    1.1912 H         1 <0>         0.0891
     60 H27       7.6517  -45.5385    4.4894 H         1 <0>         0.3177
     61 H28       9.4981  -46.3383    2.0185 H         1 <0>         0.4586
@<TRIPOS>BOND
     1    1    2 ar
     2    1    4 ar
     3    2    5 ar
     4    3    6 ar
     5    3    9 ar
     6    4   12 ar
     7    5   15 ar
     8    6   16 ar
     9    7   10 ar
    10    7   14 ar
    11    8   11 ar
    12    8   14 ar
    13    9   18 ar
    14   10   17 ar
    15   11   17 ar
    16   12   15 ar
    17   12   19 1
    18   13   16 ar
    19   13   18 ar
    20   13   20 1
    21   14   24 1
    22   15   25 1
    23   16   26 1
    24   17   32 1
    25   18   33 1
    26   19   27 am
    27   19   30 2
    28   20   29 1
    29   20   31 2
    30   21   28 1
    31   22   32 1
    32   23   33 1
    33   24   27 1
    34   25   28 1
    35   26   28 1
    36    1   34 1
    37    2   35 1
    38    3   36 1
    39    4   37 1
    40    5   38 1
    41    6   39 1
    42    7   40 1
    43    8   41 1
    44    9   42 1
    45   10   43 1
    46   11   44 1
    47   21   45 1
    48   21   46 1
    49   21   47 1
    50   22   48 1
    51   22   49 1
    52   22   50 1
    53   23   51 1
    54   23   52 1
    55   23   53 1
    56   24   54 1
    57   24   55 1
    58   25   56 1
    59   25   57 1
    60   26   58 1
    61   26   59 1
    62   27   60 1
    63   28   61 1
