@<TRIPOS>MOLECULE
AVX101140_0_3
   37    40     0     0     0
SMALL
USER_CHARGES

@<TRIPOS>ATOM
      1 C1        5.9568  -21.5416   -2.0860 C.ar      1 <0>        -0.1303
      2 C2        3.0738  -22.1176   -3.5796 C.ar      1 <0>        -0.2022
      3 C3        7.0232  -22.4225   -2.2699 C.ar      1 <0>        -0.1594
      4 C4        2.5080  -22.7531   -4.6907 C.ar      1 <0>        -0.0326
      5 C5        0.4220  -23.1499   -3.4897 C.ar      1 <0>         0.0096
      6 C6        1.0049  -22.5198   -2.4112 C.ar      1 <0>        -0.2704
      7 C7        5.1910  -22.8554   -0.2028 C.ar      1 <0>        -0.0489
      8 C8        5.0389  -21.7609   -1.0577 C.ar      1 <0>        -0.1270
      9 C9        2.3011  -22.0088   -2.4381 C.ar      1 <0>         0.1477
     10 C10       7.1677  -23.5256   -1.4245 C.ar      1 <0>         0.0467
     11 C11       6.2646  -23.7295   -0.3776 C.ar      1 <0>         0.0601
     12 C12       1.1955  -23.2639   -4.6459 C.ar      1 <0>        -0.1076
     13 C13       0.4703  -22.2448   -1.0802 C.2       1 <0>         0.5177
     14 C14       1.5687  -21.5204   -0.3117 C.2       1 <0>         0.5960
     15 C15       4.2089  -23.0920    0.8760 C.2       1 <0>         0.9164
     16 C16       8.0769  -25.6186   -0.9864 C.3       1 <0>         0.0909
     17 C17       7.6637  -25.3871    0.4541 C.3       1 <0>         0.0892
     18 C18       3.8933  -20.8028   -0.8981 C.3       1 <0>         0.1522
     19 N1        2.6261  -21.4229   -1.2005 N.am      1 <0>        -0.3670
     20 O1        4.3354  -22.4389    1.9754 O.co2     1 <0>        -0.8260
     21 O2       -0.6160  -22.5132   -0.6271 O.2       1 <0>        -0.4735
     22 O3        1.4284  -21.1533    0.8348 O.2       1 <0>        -0.4557
     23 O4        3.2660  -23.9420    0.6737 O.co2     1 <0>        -0.7877
     24 O5        8.2220  -24.3672   -1.6684 O.3       1 <0>        -0.3349
     25 O6        6.3722  -24.7743    0.5058 O.3       1 <0>        -0.2794
     26 Br1       0.4745  -24.1144   -6.1739 Br        1 <0>        -0.1100
     27 H1        5.8522  -20.6835   -2.7476 H         1 <0>         0.1125
     28 H2        4.0851  -21.7296   -3.6294 H         1 <0>         0.1542
     29 H3        7.7411  -22.2369   -3.0644 H         1 <0>         0.1283
     30 H4        3.1031  -22.8465   -5.5966 H         1 <0>         0.1400
     31 H5       -0.5896  -23.5357   -3.4342 H         1 <0>         0.1548
     32 H6        9.0256  -26.1658   -1.0514 H         1 <0>         0.0486
     33 H7        7.3120  -26.1985   -1.5124 H         1 <0>         0.0567
     34 H8        7.6293  -26.3270    1.0222 H         1 <0>         0.0505
     35 H9        8.3710  -24.7136    0.9482 H         1 <0>         0.0700
     36 H10       3.8468  -20.4249    0.1289 H         1 <0>         0.1211
     37 H11       4.0089  -19.9357   -1.5595 H         1 <0>         0.0494
@<TRIPOS>BOND
     1    1    3 ar
     2    1    8 ar
     3    2    4 ar
     4    2    9 ar
     5    3   10 ar
     6    4   12 ar
     7    5    6 ar
     8    5   12 ar
     9    6    9 ar
    10    6   13 1
    11    7    8 ar
    12    7   11 ar
    13    7   15 1
    14    8   18 1
    15    9   19 1
    16   10   11 ar
    17   10   24 1
    18   11   25 1
    19   12   26 1
    20   13   14 1
    21   13   21 2
    22   14   19 am
    23   14   22 2
    24   15   20 1
    25   15   23 2
    26   16   17 1
    27   16   24 1
    28   17   25 1
    29   18   19 1
    30    1   27 1
    31    2   28 1
    32    3   29 1
    33    4   30 1
    34    5   31 1
    35   16   32 1
    36   16   33 1
    37   17   34 1
    38   17   35 1
    39   18   36 1
    40   18   37 1
