@<TRIPOS>MOLECULE
AVX101121_0_1
   67    70     0     0     0
SMALL
USER_CHARGES

@<TRIPOS>ATOM
      1 C1       -0.7711  -19.9825    4.9504 C.ar      1 <0>        -0.1098
      2 C2        0.0823  -18.8868    4.8643 C.ar      1 <0>        -0.1106
      3 C3        6.8831  -21.6966   -2.2435 C.ar      1 <0>        -0.1176
      4 C4       -1.0297  -20.7568    3.8192 C.ar      1 <0>        -0.1177
      5 C5        0.6804  -18.5612    3.6470 C.ar      1 <0>        -0.1131
      6 C6        5.8629  -20.7623   -2.0676 C.ar      1 <0>        -0.1710
      7 C7        2.1012  -25.1918   -1.8492 C.ar      1 <0>        -0.0796
      8 C8        0.0399  -26.4223   -1.5848 C.ar      1 <0>        -0.0962
      9 C9        6.9710  -22.8008   -1.3964 C.ar      1 <0>        -0.2012
     10 C10       2.8272  -26.3669   -1.6583 C.ar      1 <0>        -0.1622
     11 C11       0.7659  -27.5975   -1.3941 C.ar      1 <0>        -0.2051
     12 C12      -0.6852  -21.2121    1.4370 C.ar      1 <0>        -0.0743
     13 C13       1.0248  -19.0163    1.2647 C.ar      1 <0>        -0.0764
     14 C14      -0.4363  -20.4437    2.5856 C.ar      1 <0>        -0.0321
     15 C15       0.4315  -19.3294    2.4982 C.ar      1 <0>        -0.0331
     16 C16      -0.0871  -20.8865    0.2195 C.ar      1 <0>        -0.1392
     17 C17       5.0186  -22.0359   -0.1974 C.ar      1 <0>        -0.0817
     18 C18       0.7075  -25.2195   -1.8123 C.ar      1 <0>        -0.1789
     19 C19       4.9307  -20.9319   -1.0445 C.ar      1 <0>        -0.1441
     20 C20       0.7663  -19.7908    0.1336 C.ar      1 <0>        -0.1138
     21 C21       2.1596  -27.5699   -1.4309 C.ar      1 <0>         0.1480
     22 C22       6.0388  -22.9704   -0.3733 C.ar      1 <0>         0.1399
     23 C23      -0.3737  -21.7105   -0.9468 C.2       1 <0>         0.6525
     24 C24       4.0344  -22.2199    0.8869 C.2       1 <0>         0.9134
     25 C25       2.6999  -20.4697   -3.0181 C.3       1 <0>         0.0612
     26 C26       2.1292  -29.9339   -1.1804 C.3       1 <0>         0.1066
     27 C27       7.1838  -24.9865    0.1534 C.3       1 <0>         0.1087
     28 C28      -0.0739  -23.9545   -2.0180 C.3       1 <0>         0.1416
     29 C29       3.8444  -19.9107   -0.8790 C.3       1 <0>         0.1743
     30 C30       1.4195  -19.4202   -1.1583 C.3       1 <0>         0.1433
     31 N1        0.1082  -23.0232   -0.9282 N.am      1 <0>        -0.5615
     32 N2        2.5461  -20.3193   -1.5263 N.4       1 <0>        -0.6743
     33 O1        4.0962  -23.2884    1.5985 O.co2     1 <0>        -0.8309
     34 O2       -1.0010  -21.2400   -1.9104 O.2       1 <0>        -0.5986
     35 O3        3.1521  -21.3051    1.0788 O.co2     1 <0>        -0.7663
     36 O4        2.8689  -28.7162   -1.2459 O.3       1 <0>        -0.3166
     37 O5        6.1430  -24.0563    0.4431 O.3       1 <0>        -0.2875
     38 H1       -1.2370  -20.2351    5.8983 H         1 <0>         0.1436
     39 H2        0.2825  -18.2839    5.7451 H         1 <0>         0.1452
     40 H3        7.6090  -21.5647   -3.0400 H         1 <0>         0.1262
     41 H4       -1.7000  -21.6088    3.9101 H         1 <0>         0.1421
     42 H5        1.3439  -17.7001    3.6034 H         1 <0>         0.1446
     43 H6        5.8033  -19.9055   -2.7330 H         1 <0>         0.1108
     44 H7        2.6294  -24.2591   -2.0258 H         1 <0>         0.1428
     45 H8       -1.0457  -26.4534   -1.5536 H         1 <0>         0.1247
     46 H9        7.7684  -23.5249   -1.5391 H         1 <0>         0.1351
     47 H10       3.9128  -26.3400   -1.6881 H         1 <0>         0.1572
     48 H11       0.2400  -28.5311   -1.2162 H         1 <0>         0.1489
     49 H12      -1.3517  -22.0714    1.4935 H         1 <0>         0.1501
     50 H13       1.6946  -18.1617    1.1849 H         1 <0>         0.1489
     51 H14       2.9337  -19.4868   -3.4304 H         1 <0>         0.0999
     52 H15       3.5124  -21.1754   -3.2007 H         1 <0>         0.1769
     53 H16       1.7557  -20.8470   -3.4150 H         1 <0>         0.0795
     54 H17       2.8157  -30.7704   -1.0305 H         1 <0>         0.0768
     55 H18       1.5684  -30.0708   -2.1080 H         1 <0>         0.0272
     56 H19       1.4331  -29.8818   -0.3404 H         1 <0>         0.0563
     57 H20       7.1556  -25.8032    0.8783 H         1 <0>         0.0742
     58 H21       8.1503  -24.4789    0.1982 H         1 <0>         0.0186
     59 H22       7.0319  -25.3884   -0.8507 H         1 <0>         0.0331
     60 H23       0.2351  -23.4560   -2.9429 H         1 <0>         0.0799
     61 H24      -1.1450  -24.1640   -2.1039 H         1 <0>         0.0589
     62 H25       3.6259  -19.7331    0.1791 H         1 <0>         0.0769
     63 H26       4.1307  -18.9528   -1.3258 H         1 <0>         0.1438
     64 H27       0.7082  -19.4566   -1.9929 H         1 <0>         0.1310
     65 H28       1.8325  -18.4043   -1.1222 H         1 <0>         0.0993
     66 H29       0.6689  -23.3359   -0.1427 H         1 <0>         0.3131
     67 H30       2.3260  -21.2607   -1.1626 H         1 <0>         0.4384
@<TRIPOS>BOND
     1    1    2 ar
     2    1    4 ar
     3    2    5 ar
     4    3    6 ar
     5    3    9 ar
     6    4   14 ar
     7    5   15 ar
     8    6   19 ar
     9    7   10 ar
    10    7   18 ar
    11    8   11 ar
    12    8   18 ar
    13    9   22 ar
    14   10   21 ar
    15   11   21 ar
    16   12   14 ar
    17   12   16 ar
    18   13   15 ar
    19   13   20 ar
    20   14   15 ar
    21   16   20 ar
    22   16   23 1
    23   17   19 ar
    24   17   22 ar
    25   17   24 1
    26   18   28 1
    27   19   29 1
    28   20   30 1
    29   21   36 1
    30   22   37 1
    31   23   31 am
    32   23   34 2
    33   24   33 1
    34   24   35 2
    35   25   32 1
    36   26   36 1
    37   27   37 1
    38   28   31 1
    39   29   32 1
    40   30   32 1
    41    1   38 1
    42    2   39 1
    43    3   40 1
    44    4   41 1
    45    5   42 1
    46    6   43 1
    47    7   44 1
    48    8   45 1
    49    9   46 1
    50   10   47 1
    51   11   48 1
    52   12   49 1
    53   13   50 1
    54   25   51 1
    55   25   52 1
    56   25   53 1
    57   26   54 1
    58   26   55 1
    59   26   56 1
    60   27   57 1
    61   27   58 1
    62   27   59 1
    63   28   60 1
    64   28   61 1
    65   29   62 1
    66   29   63 1
    67   30   64 1
    68   30   65 1
    69   31   66 1
    70   32   67 1
