@<TRIPOS>MOLECULE
AVX101119_0_2
   64    67     0     0     0
SMALL
USER_CHARGES

@<TRIPOS>ATOM
      1 C1        7.2876  -21.9309   -2.4320 C.ar      1 <0>        -0.1177
      2 C2        6.2920  -20.9873   -2.1656 C.ar      1 <0>        -0.1727
      3 C3        2.4545  -25.7121   -1.7403 C.ar      1 <0>        -0.0812
      4 C4        0.1948  -26.0758   -2.5281 C.ar      1 <0>        -0.0978
      5 C5        7.2709  -23.1637   -1.7797 C.ar      1 <0>        -0.2027
      6 C6        2.5434  -27.0555   -1.3775 C.ar      1 <0>        -0.1616
      7 C7        0.2837  -27.4194   -2.1654 C.ar      1 <0>        -0.2041
      8 C8       -0.4005  -21.4972    0.9958 C.ar      1 <0>        -0.0955
      9 C9        1.2209  -19.1780    1.0111 C.ar      1 <0>        -0.0981
     10 C10       0.3008  -21.1105   -0.1497 C.ar      1 <0>        -0.1245
     11 C11       5.2633  -22.5092   -0.5944 C.ar      1 <0>        -0.0830
     12 C12       1.2801  -25.2222   -2.3156 C.ar      1 <0>        -0.1810
     13 C13       5.2799  -21.2764   -1.2468 C.ar      1 <0>        -0.1422
     14 C14       1.1069  -19.9575   -0.1421 C.ar      1 <0>        -0.1033
     15 C15      -0.2708  -20.7102    2.1213 C.ar      1 <0>         0.0788
     16 C16       0.5182  -19.5817    2.1287 C.ar      1 <0>         0.0781
     17 C17       1.4575  -27.9093   -1.5901 C.ar      1 <0>         0.1476
     18 C18       6.2589  -23.4527   -0.8608 C.ar      1 <0>         0.1430
     19 C19       0.1771  -21.9258   -1.3505 C.2       1 <0>         0.6517
     20 C20       4.1942  -22.8200    0.3790 C.2       1 <0>         0.9128
     21 C21      -0.3770  -19.8112    4.0861 C.3       1 <0>         0.3201
     22 C22       3.1935  -20.5182   -3.2311 C.3       1 <0>         0.0660
     23 C23       2.7182  -29.6230   -0.5263 C.3       1 <0>         0.1066
     24 C24       7.3920  -25.5068   -0.4602 C.3       1 <0>         0.1085
     25 C25       1.1846  -23.7761   -2.7063 C.3       1 <0>         0.1398
     26 C26       4.2225  -20.2424   -0.9802 C.3       1 <0>         0.1724
     27 C27       1.8589  -19.5401   -1.3664 C.3       1 <0>         0.1454
     28 N1        1.1566  -22.9053   -1.5536 N.am      1 <0>        -0.5603
     29 N2        2.9441  -20.4887   -1.7444 N.4       1 <0>        -0.6751
     30 O1        4.3261  -22.4072    1.5893 O.co2     1 <0>        -0.8358
     31 O2       -0.7527  -21.7270   -2.1523 O.2       1 <0>        -0.5908
     32 O3        3.1716  -23.4921   -0.0200 O.co2     1 <0>        -0.7634
     33 O4       -0.8739  -20.9289    3.3219 O.3       1 <0>        -0.3223
     34 O5        0.5076  -18.9524    3.3350 O.3       1 <0>        -0.3199
     35 O6        1.5446  -29.2206   -1.2375 O.3       1 <0>        -0.3145
     36 O7        6.2615  -24.6633   -0.2346 O.3       1 <0>        -0.2867
     37 H1        8.0756  -21.7059   -3.1474 H         1 <0>         0.1247
     38 H2        6.3140  -20.0299   -2.6793 H         1 <0>         0.1107
     39 H3        3.3049  -25.0541   -1.5711 H         1 <0>         0.1430
     40 H4       -0.7247  -25.7029   -2.9750 H         1 <0>         0.1246
     41 H5        8.0496  -23.8941   -1.9920 H         1 <0>         0.1367
     42 H6        3.4605  -27.4322   -0.9298 H         1 <0>         0.1580
     43 H7       -0.5657  -28.0790   -2.3326 H         1 <0>         0.1494
     44 H8       -1.0267  -22.3842    1.0064 H         1 <0>         0.1748
     45 H9        1.8391  -18.2861    1.0311 H         1 <0>         0.1722
     46 H10      -1.2329  -19.2186    4.4343 H         1 <0>         0.0879
     47 H11       0.1661  -20.1946    4.9579 H         1 <0>         0.0854
     48 H12       3.5268  -19.5239   -3.5340 H         1 <0>         0.1093
     49 H13       3.9664  -21.2665   -3.4268 H         1 <0>         0.1715
     50 H14       2.2530  -20.7840   -3.7211 H         1 <0>         0.0773
     51 H15       2.6605  -30.6916   -0.3061 H         1 <0>         0.0752
     52 H16       2.7971  -29.0524    0.4023 H         1 <0>         0.0265
     53 H17       3.5978  -29.4273   -1.1465 H         1 <0>         0.0572
     54 H18       7.2675  -26.4389    0.0962 H         1 <0>         0.0750
     55 H19       8.3036  -24.9952   -0.1364 H         1 <0>         0.0186
     56 H20       7.4625  -25.7288   -1.5277 H         1 <0>         0.0338
     57 H21       2.0416  -23.4862   -3.3277 H         1 <0>         0.0842
     58 H22       0.2767  -23.5867   -3.2906 H         1 <0>         0.0615
     59 H23       3.9519  -20.2158    0.0811 H         1 <0>         0.0767
     60 H24       4.5698  -19.2424   -1.2615 H         1 <0>         0.1466
     61 H25       1.1936  -19.4630   -2.2362 H         1 <0>         0.1293
     62 H26       2.3375  -18.5623   -1.2291 H         1 <0>         0.1054
     63 H27       1.9292  -22.9823   -0.8985 H         1 <0>         0.3134
     64 H28       2.6309  -21.4386   -1.4852 H         1 <0>         0.4345
@<TRIPOS>BOND
     1    1    2 ar
     2    1    5 ar
     3    2   13 ar
     4    3    6 ar
     5    3   12 ar
     6    4    7 ar
     7    4   12 ar
     8    5   18 ar
     9    6   17 ar
    10    7   17 ar
    11    8   10 ar
    12    8   15 ar
    13    9   14 ar
    14    9   16 ar
    15   10   14 ar
    16   10   19 1
    17   11   13 ar
    18   11   18 ar
    19   11   20 1
    20   12   25 1
    21   13   26 1
    22   14   27 1
    23   15   16 ar
    24   15   33 1
    25   16   34 1
    26   17   35 1
    27   18   36 1
    28   19   28 am
    29   19   31 2
    30   20   30 1
    31   20   32 2
    32   21   33 1
    33   21   34 1
    34   22   29 1
    35   23   35 1
    36   24   36 1
    37   25   28 1
    38   26   29 1
    39   27   29 1
    40    1   37 1
    41    2   38 1
    42    3   39 1
    43    4   40 1
    44    5   41 1
    45    6   42 1
    46    7   43 1
    47    8   44 1
    48    9   45 1
    49   21   46 1
    50   21   47 1
    51   22   48 1
    52   22   49 1
    53   22   50 1
    54   23   51 1
    55   23   52 1
    56   23   53 1
    57   24   54 1
    58   24   55 1
    59   24   56 1
    60   25   57 1
    61   25   58 1
    62   26   59 1
    63   26   60 1
    64   27   61 1
    65   27   62 1
    66   28   63 1
    67   29   64 1
