@<TRIPOS>MOLECULE
AVX38747_0_6
   70    73     0     0     0
SMALL
USER_CHARGES

@<TRIPOS>ATOM
      1 C1       -2.9038  -22.8682   -7.5608 C.ar      1 <0>        -0.1466
      2 C2       -2.0280  -23.9554   -7.4051 C.ar      1 <0>        -0.1339
      3 C3       -3.3223  -22.1265   -6.4539 C.ar      1 <0>        -0.1295
      4 C4       -1.5583  -24.3176   -6.1401 C.ar      1 <0>        -0.0974
      5 C5        0.3569  -23.9590   -0.8831 C.ar      1 <0>        -0.1631
      6 C6        0.4653  -24.4263    0.4268 C.ar      1 <0>        -0.1892
      7 C7       -0.4652  -26.1184   -1.5915 C.ar      1 <0>        -0.0781
      8 C8       -2.8406  -22.4842   -5.2054 C.ar      1 <0>        -0.1078
      9 C9       -1.9655  -23.5698   -5.0453 C.ar      1 <0>        -0.0714
     10 C10      -0.1125  -24.8023   -1.8900 C.ar      1 <0>        -0.0934
     11 C11       0.1039  -25.7397    0.7288 C.ar      1 <0>         0.0621
     12 C12      -0.3416  -26.5903   -0.2845 C.ar      1 <0>         0.0766
     13 C13      -0.9808  -27.0031   -2.6561 C.2       1 <0>         0.9220
     14 C14      -0.3449  -20.8952   -1.8782 C.2       1 <0>         0.6508
     15 C15       1.0248  -25.6354    4.4772 C.2       1 <0>         0.9097
     16 C16      -3.1725  -21.8589   -3.8826 C.3       1 <0>        -0.0570
     17 C17      -0.9040  -28.1454    1.3481 C.3       1 <0>         0.0893
     18 C18      -1.6460  -23.7719   -3.5870 C.3       1 <0>        -0.0346
     19 C19      -2.0111  -22.3772   -3.0042 C.3       1 <0>         0.1032
     20 C20       0.2787  -27.5931    2.1354 C.3       1 <0>         0.0996
     21 C21      -0.2321  -24.2621   -3.2902 C.3       1 <0>        -0.0159
     22 C22       0.7830  -19.9280   -2.2090 C.3       1 <0>        -0.1618
     23 C23       1.1709  -27.1616    4.4479 C.3       1 <0>        -0.1921
     24 C24       0.1625  -27.9300    3.6151 C.3       1 <0>        -0.0548
     25 C25       2.1443  -20.6034   -2.3982 C.3       1 <0>        -0.0629
     26 C26       3.2478  -19.6062   -2.7774 C.3       1 <0>        -0.1038
     27 C27       3.5165  -18.6225   -1.6343 C.3       1 <0>        -0.1121
     28 C28       4.5654  -17.5685   -1.9763 C.3       1 <0>         0.1057
     29 N1       -0.9015  -21.4412   -3.0258 N.am      1 <0>        -0.5414
     30 N2        4.0557  -16.6398   -3.0118 N.4       1 <0>        -0.8392
     31 O1       -2.2398  -26.9703   -2.9263 O.co2     1 <0>        -0.8164
     32 O2       -0.0293  -25.1794    5.0070 O.co2     1 <0>        -0.8681
     33 O3       -0.1510  -27.7721   -3.2710 O.co2     1 <0>        -0.8200
     34 O4       -0.7152  -21.1323   -0.7306 O.2       1 <0>        -0.6314
     35 O5        2.0037  -25.0130    3.9688 O.co2     1 <0>        -0.8415
     36 O6       -0.6946  -27.8933   -0.0540 O.3       1 <0>        -0.2896
     37 O7        0.3140  -26.1645    2.0148 O.3       1 <0>        -0.3272
     38 H1       -3.2638  -22.6064   -8.5522 H         1 <0>         0.1164
     39 H2       -1.7191  -24.5264   -8.2777 H         1 <0>         0.1258
     40 H3       -4.0068  -21.2922   -6.5746 H         1 <0>         0.1201
     41 H4       -0.8947  -25.1696   -6.0287 H         1 <0>         0.1700
     42 H5        0.6458  -22.9361   -1.1099 H         1 <0>         0.0861
     43 H6        0.8418  -23.7654    1.2033 H         1 <0>         0.0952
     44 H7       -3.2053  -20.7663   -3.9379 H         1 <0>         0.0479
     45 H8       -4.1375  -22.2450   -3.5293 H         1 <0>         0.0687
     46 H9       -0.9782  -29.2309    1.4711 H         1 <0>         0.0790
     47 H10      -1.8576  -27.7008    1.6710 H         1 <0>         0.0533
     48 H11      -2.3694  -24.5095   -3.1987 H         1 <0>         0.1331
     49 H12      -2.3189  -22.4509   -1.9545 H         1 <0>         0.0936
     50 H13       1.2278  -27.9913    1.7450 H         1 <0>         0.0528
     51 H14       0.4828  -23.4421   -3.4335 H         1 <0>         0.0058
     52 H15       0.0501  -25.0381   -4.0123 H         1 <0>         0.1017
     53 H16       0.5176  -19.3539   -3.1043 H         1 <0>         0.0542
     54 H17       0.8511  -19.2217   -1.3723 H         1 <0>         0.0733
     55 H18       1.0682  -27.4971    5.4878 H         1 <0>         0.0189
     56 H19       2.1939  -27.4097    4.1285 H         1 <0>         0.0248
     57 H20      -0.8631  -27.7317    3.9318 H         1 <0>         0.0611
     58 H21       0.3434  -29.0003    3.7147 H         1 <0>         0.0584
     59 H22       2.4200  -21.0940   -1.4567 H         1 <0>         0.0321
     60 H23       2.0766  -21.3899   -3.1595 H         1 <0>         0.0730
     61 H24       2.9455  -19.0513   -3.6737 H         1 <0>         0.0247
     62 H25       4.1681  -20.1482   -3.0283 H         1 <0>         0.1006
     63 H26       2.5803  -18.1057   -1.3801 H         1 <0>         0.0544
     64 H27       3.8237  -19.1749   -0.7378 H         1 <0>         0.1050
     65 H28       4.8393  -16.9630   -1.1076 H         1 <0>         0.0966
     66 H29       5.4666  -18.0335   -2.3929 H         1 <0>         0.1317
     67 H30      -0.5123  -21.1718   -3.9257 H         1 <0>         0.3126
     68 H31       3.0386  -16.7368   -3.1253 H         1 <0>         0.4549
     69 H32       4.4961  -16.8255   -3.9220 H         1 <0>         0.4802
     70 H33       4.2526  -15.6643   -2.7612 H         1 <0>         0.4552
@<TRIPOS>BOND
     1    1    2 ar
     2    1    3 ar
     3    2    4 ar
     4    3    8 ar
     5    4    9 ar
     6    5    6 ar
     7    5   10 ar
     8    6   11 ar
     9    7   10 ar
    10    7   12 ar
    11    7   13 1
    12    8    9 ar
    13    8   16 1
    14    9   18 1
    15   10   21 1
    16   11   12 ar
    17   11   37 1
    18   12   36 1
    19   13   31 1
    20   13   33 2
    21   14   22 1
    22   14   29 am
    23   14   34 2
    24   15   23 1
    25   15   32 1
    26   15   35 2
    27   16   19 1
    28   17   20 1
    29   17   36 1
    30   18   19 1
    31   18   21 1
    32   19   29 1
    33   20   24 1
    34   20   37 1
    35   22   25 1
    36   23   24 1
    37   25   26 1
    38   26   27 1
    39   27   28 1
    40   28   30 1
    41    1   38 1
    42    2   39 1
    43    3   40 1
    44    4   41 1
    45    5   42 1
    46    6   43 1
    47   16   44 1
    48   16   45 1
    49   17   46 1
    50   17   47 1
    51   18   48 1
    52   19   49 1
    53   20   50 1
    54   21   51 1
    55   21   52 1
    56   22   53 1
    57   22   54 1
    58   23   55 1
    59   23   56 1
    60   24   57 1
    61   24   58 1
    62   25   59 1
    63   25   60 1
    64   26   61 1
    65   26   62 1
    66   27   63 1
    67   27   64 1
    68   28   65 1
    69   28   66 1
    70   29   67 1
    71   30   68 1
    72   30   69 1
    73   30   70 1
