@<TRIPOS>MOLECULE
AVX38781_1_14
   77    80     0     0     0
SMALL
USER_CHARGES

@<TRIPOS>ATOM
      1 C1       -1.9068  -25.0088  -19.8759 C.ar      1 <0>        -0.0963
      2 C2       -1.4579  -23.9005  -20.5977 C.ar      1 <0>        -0.0874
      3 C3       -1.6393  -26.3017  -20.3369 C.ar      1 <0>        -0.0889
      4 C4       -0.7416  -24.0851  -21.7805 C.ar      1 <0>        -0.0639
      5 C5        4.2824  -25.9604  -21.4174 C.ar      1 <0>        -0.1232
      6 C6        5.5840  -26.3704  -21.1045 C.ar      1 <0>        -0.1532
      7 C7       -0.9230  -26.4863  -21.5197 C.ar      1 <0>        -0.1007
      8 C8        5.0627  -25.0407  -23.5140 C.ar      1 <0>        -0.0867
      9 C9       -0.4740  -25.3780  -22.2415 C.ar      1 <0>        -0.1055
     10 C10       4.0232  -25.2915  -22.6179 C.ar      1 <0>        -0.1909
     11 C11       6.6263  -26.1074  -21.9940 C.ar      1 <0>         0.1006
     12 C12       6.3621  -25.4627  -23.2080 C.ar      1 <0>         0.0745
     13 C13       1.0063  -28.5673  -25.6670 C.2       1 <0>        -0.1794
     14 C14       1.6613  -28.1320  -24.5846 C.2       1 <0>        -0.2061
     15 C15      -0.6583  -27.8472  -21.9789 C.2       1 <0>         0.6552
     16 C16       4.7821  -24.3420  -24.7890 C.2       1 <0>         0.9196
     17 C17      11.6467  -24.6187  -22.9418 C.2       1 <0>         0.9108
     18 C18      -2.4018  -33.2268  -20.2618 C.3       1 <0>        -0.0785
     19 C19      -2.7274  -31.7870  -19.8576 C.3       1 <0>        -0.0747
     20 C20      -0.9042  -33.5180  -20.1660 C.3       1 <0>        -0.0755
     21 C21      -1.9131  -30.7747  -20.6620 C.3       1 <0>        -0.0726
     22 C22      -0.0866  -32.5086  -20.9708 C.3       1 <0>        -0.0833
     23 C23       8.5274  -25.9720  -23.8900 C.3       1 <0>         0.0867
     24 C24      -0.4052  -31.0592  -20.5609 C.3       1 <0>        -0.0898
     25 C25       8.9077  -25.8989  -22.4161 C.3       1 <0>         0.0992
     26 C26       0.2979  -25.5473  -23.5172 C.3       1 <0>         0.1621
     27 C27       2.6192  -24.8593  -22.9189 C.3       1 <0>         0.1847
     28 C28       2.2603  -26.7677  -24.4686 C.3       1 <0>         0.1411
     29 C29      11.3465  -26.1226  -23.0119 C.3       1 <0>        -0.1978
     30 C30       0.3839  -30.0674  -21.4156 C.3       1 <0>         0.0846
     31 C31      10.2172  -26.6366  -22.1398 C.3       1 <0>        -0.0525
     32 N1        0.0271  -28.6988  -21.0973 N.am      1 <0>        -0.5496
     33 N2        1.7267  -25.9900  -23.2913 N.4       1 <0>        -0.7067
     34 O1        4.4135  -25.0412  -25.8023 O.co2     1 <0>        -0.7831
     35 O2       12.0439  -24.0727  -24.0080 O.co2     1 <0>        -0.8476
     36 O3       -1.0164  -28.2052  -23.1138 O.2       1 <0>        -0.6349
     37 O4        4.9177  -23.0616  -24.8361 O.co2     1 <0>        -0.8599
     38 O5       11.4422  -24.1017  -21.8058 O.co2     1 <0>        -0.8520
     39 O6        7.3363  -25.2062  -24.1366 O.3       1 <0>        -0.2966
     40 O7        7.8853  -26.5160  -21.6218 O.3       1 <0>        -0.3010
     41 H1       -2.4652  -24.8652  -18.9550 H         1 <0>         0.1351
     42 H2       -1.6673  -22.8939  -20.2389 H         1 <0>         0.1413
     43 H3       -1.9949  -27.1573  -19.7659 H         1 <0>         0.1419
     44 H4       -0.3967  -23.2148  -22.3354 H         1 <0>         0.1364
     45 H5        3.4771  -26.1629  -20.7160 H         1 <0>         0.1137
     46 H6        5.7789  -26.8828  -20.1636 H         1 <0>         0.1529
     47 H7        0.5890  -29.5694  -25.6885 H         1 <0>         0.1295
     48 H8        0.8738  -27.9379  -26.5438 H         1 <0>         0.1149
     49 H9        1.7615  -28.8012  -23.7299 H         1 <0>         0.1577
     50 H10      -2.9515  -33.9262  -19.6206 H         1 <0>         0.0388
     51 H11      -2.7424  -33.3995  -21.2903 H         1 <0>         0.0390
     52 H12      -3.7983  -31.5921  -20.0026 H         1 <0>         0.0346
     53 H13      -2.5199  -31.6554  -18.7885 H         1 <0>         0.0346
     54 H14      -0.5912  -33.4872  -19.1146 H         1 <0>         0.0376
     55 H15      -0.6979  -34.5355  -20.5272 H         1 <0>         0.0538
     56 H16      -2.2314  -30.8082  -21.7123 H         1 <0>         0.0395
     57 H17      -2.1323  -29.7599  -20.2993 H         1 <0>         0.0404
     58 H18       0.9824  -32.7171  -20.8259 H         1 <0>         0.0631
     59 H19      -0.2955  -32.6455  -22.0396 H         1 <0>         0.0413
     60 H20       9.3213  -25.5521  -24.5165 H         1 <0>         0.0845
     61 H21       8.3516  -27.0076  -24.2140 H         1 <0>         0.0589
     62 H22      -0.0886  -30.9144  -19.5221 H         1 <0>         0.0459
     63 H23       9.0020  -24.8516  -22.0942 H         1 <0>         0.0601
     64 H24      -0.1645  -26.3016  -24.1628 H         1 <0>         0.0802
     65 H25       0.3398  -24.6053  -24.0802 H         1 <0>         0.1061
     66 H26       2.1535  -24.3680  -22.0541 H         1 <0>         0.1210
     67 H27       2.5840  -24.1464  -23.7562 H         1 <0>         0.0672
     68 H28       2.0250  -26.1714  -25.3594 H         1 <0>         0.0704
     69 H29       3.3494  -26.8034  -24.3457 H         1 <0>         0.1138
     70 H30      12.2698  -26.6376  -22.7005 H         1 <0>         0.0215
     71 H31      11.1655  -26.3915  -24.0604 H         1 <0>         0.0362
     72 H32       0.1748  -30.2246  -22.4784 H         1 <0>         0.0684
     73 H33       1.4605  -30.1844  -21.2454 H         1 <0>         0.0519
     74 H34      10.4475  -26.5401  -21.0797 H         1 <0>         0.0649
     75 H35      10.0444  -27.6941  -22.3469 H         1 <0>         0.0599
     76 H36       0.3517  -28.3352  -20.2071 H         1 <0>         0.3446
     77 H37       1.7066  -26.6509  -22.4946 H         1 <0>         0.5176
@<TRIPOS>BOND
     1    1    2 ar
     2    1    3 ar
     3    2    4 ar
     4    3    7 ar
     5    4    9 ar
     6    5    6 ar
     7    5   10 ar
     8    6   11 ar
     9    7    9 ar
    10    7   15 1
    11    8   10 ar
    12    8   12 ar
    13    8   16 1
    14    9   26 1
    15   10   27 1
    16   11   12 ar
    17   11   40 1
    18   12   39 1
    19   13   14 2
    20   14   28 1
    21   15   32 am
    22   15   36 2
    23   16   34 1
    24   16   37 2
    25   17   29 1
    26   17   35 1
    27   17   38 2
    28   18   19 1
    29   18   20 1
    30   19   21 1
    31   20   22 1
    32   21   24 1
    33   22   24 1
    34   23   25 1
    35   23   39 1
    36   24   30 1
    37   25   31 1
    38   25   40 1
    39   26   33 1
    40   27   33 1
    41   28   33 1
    42   29   31 1
    43   30   32 1
    44    1   41 1
    45    2   42 1
    46    3   43 1
    47    4   44 1
    48    5   45 1
    49    6   46 1
    50   13   47 1
    51   13   48 1
    52   14   49 1
    53   18   50 1
    54   18   51 1
    55   19   52 1
    56   19   53 1
    57   20   54 1
    58   20   55 1
    59   21   56 1
    60   21   57 1
    61   22   58 1
    62   22   59 1
    63   23   60 1
    64   23   61 1
    65   24   62 1
    66   25   63 1
    67   26   64 1
    68   26   65 1
    69   27   66 1
    70   27   67 1
    71   28   68 1
    72   28   69 1
    73   29   70 1
    74   29   71 1
    75   30   72 1
    76   30   73 1
    77   31   74 1
    78   31   75 1
    79   32   76 1
    80   33   77 1
