@<TRIPOS>MOLECULE
AVX38749_0_9
   64    67     0     0     0
SMALL
USER_CHARGES

@<TRIPOS>ATOM
      1 C1       -0.6400  -24.7902   -5.8135 C.ar      1 <0>        -0.1486
      2 C2       -1.2622  -24.7730   -4.5539 C.ar      1 <0>        -0.1320
      3 C3        0.5112  -24.0353   -6.0483 C.ar      1 <0>        -0.1317
      4 C4       -0.7408  -24.0026   -3.5100 C.ar      1 <0>        -0.0955
      5 C5        0.4961  -22.6950    0.1360 C.ar      1 <0>        -0.1546
      6 C6       -0.2654  -23.0747    1.2415 C.ar      1 <0>        -0.1632
      7 C7        1.0426  -25.0188   -0.2987 C.ar      1 <0>        -0.0789
      8 C8        1.0148  -23.2645   -5.0114 C.ar      1 <0>        -0.1125
      9 C9        0.3995  -23.2524   -3.7514 C.ar      1 <0>        -0.0698
     10 C10       1.1537  -23.6651   -0.6297 C.ar      1 <0>        -0.1141
     11 C11      -0.3656  -24.4271    1.5813 C.ar      1 <0>         0.0632
     12 C12       0.2699  -25.4004    0.7986 C.ar      1 <0>         0.0714
     13 C13       1.7316  -26.0438   -1.1185 C.2       1 <0>         0.9198
     14 C14       3.2106  -20.1702   -2.1018 C.2       1 <0>         0.6617
     15 C15      -1.1460  -24.4707    5.6959 C.2       1 <0>         0.9083
     16 C16       2.2387  -22.4037   -5.0190 C.3       1 <0>        -0.0543
     17 C17      -0.8881  -27.0412    1.9645 C.3       1 <0>         0.0888
     18 C18       1.1524  -22.3745   -2.7836 C.3       1 <0>        -0.0384
     19 C19       1.9828  -21.5198   -3.7790 C.3       1 <0>         0.1032
     20 C20      -0.8638  -26.0761    3.1468 C.3       1 <0>         0.0988
     21 C21       1.9737  -23.2204   -1.8118 C.3       1 <0>        -0.0104
     22 C22       4.6204  -19.7186   -1.7638 C.3       1 <0>        -0.1709
     23 C23      -2.3049  -25.2220    5.0304 C.3       1 <0>        -0.1923
     24 C24      -1.9409  -26.4195    4.1657 C.3       1 <0>        -0.0525
     25 C25       4.9585  -18.3572   -2.3688 C.3       1 <0>        -0.1038
     26 C26       3.9480  -17.2971   -1.9388 C.3       1 <0>         0.1012
     27 N1        3.1926  -20.9633   -3.2416 N.am      1 <0>        -0.5244
     28 N2        4.2262  -16.0340   -2.6654 N.4       1 <0>        -0.8409
     29 O1        1.0704  -26.6328   -2.0508 O.co2     1 <0>        -0.8272
     30 O2       -1.4613  -23.5250    6.4754 O.co2     1 <0>        -0.8638
     31 O3        2.9655  -26.3073   -0.8676 O.co2     1 <0>        -0.8207
     32 O4        2.2251  -19.8572   -1.4344 O.2       1 <0>        -0.6284
     33 O5        0.0018  -24.9098    5.3841 O.co2     1 <0>        -0.8532
     34 O6        0.1820  -26.7452    1.0609 O.3       1 <0>        -0.2914
     35 O7       -1.1106  -24.7357    2.6893 O.3       1 <0>        -0.3191
     36 H1       -1.0630  -25.3925   -6.6150 H         1 <0>         0.1161
     37 H2       -2.1633  -25.3585   -4.3938 H         1 <0>         0.1274
     38 H3        0.9942  -24.0568   -7.0206 H         1 <0>         0.1172
     39 H4       -1.2273  -23.9950   -2.5403 H         1 <0>         0.1729
     40 H5        0.5748  -21.6387   -0.1181 H         1 <0>         0.0841
     41 H6       -0.7673  -22.3121    1.8378 H         1 <0>         0.1251
     42 H7        3.1595  -22.9930   -4.9417 H         1 <0>         0.0405
     43 H8        2.2525  -21.8005   -5.9323 H         1 <0>         0.0718
     44 H9       -0.7532  -28.0771    2.3010 H         1 <0>         0.0748
     45 H10      -1.8350  -26.9836    1.4117 H         1 <0>         0.0484
     46 H11       0.4491  -21.7696   -2.2537 H         1 <0>         0.1375
     47 H12       1.3751  -20.6108   -4.0865 H         1 <0>         0.1012
     48 H13       0.1184  -26.0927    3.6375 H         1 <0>         0.0556
     49 H14       2.8401  -22.6446   -1.4653 H         1 <0>         0.0009
     50 H15       2.3795  -24.0995   -2.3347 H         1 <0>         0.0995
     51 H16       5.3224  -20.4808   -2.1347 H         1 <0>         0.0627
     52 H17       4.7130  -19.6740   -0.6712 H         1 <0>         0.0799
     53 H18      -2.8164  -24.4882    4.3922 H         1 <0>         0.0218
     54 H19      -3.0190  -25.5205    5.8085 H         1 <0>         0.0347
     55 H20      -2.8046  -26.8089    3.6299 H         1 <0>         0.0584
     56 H21      -1.5451  -27.2228    4.7899 H         1 <0>         0.0543
     57 H22       4.9770  -18.4367   -3.4640 H         1 <0>         0.0977
     58 H23       5.9684  -18.0577   -2.0602 H         1 <0>         0.0863
     59 H24       2.9220  -17.5851   -2.1859 H         1 <0>         0.1124
     60 H25       4.0186  -17.0683   -0.8703 H         1 <0>         0.1033
     61 H26       4.0554  -21.1381   -3.7488 H         1 <0>         0.3181
     62 H27       3.3562  -15.5279   -2.8736 H         1 <0>         0.4548
     63 H28       4.7057  -16.2230   -3.5548 H         1 <0>         0.4673
     64 H29       4.8239  -15.4123   -2.1086 H         1 <0>         0.4520
@<TRIPOS>BOND
     1    1    2 ar
     2    1    3 ar
     3    2    4 ar
     4    3    8 ar
     5    4    9 ar
     6    5    6 ar
     7    5   10 ar
     8    6   11 ar
     9    7   10 ar
    10    7   12 ar
    11    7   13 1
    12    8    9 ar
    13    8   16 1
    14    9   18 1
    15   10   21 1
    16   11   12 ar
    17   11   35 1
    18   12   34 1
    19   13   29 1
    20   13   31 2
    21   14   22 1
    22   14   27 am
    23   14   32 2
    24   15   23 1
    25   15   30 1
    26   15   33 2
    27   16   19 1
    28   17   20 1
    29   17   34 1
    30   18   19 1
    31   18   21 1
    32   19   27 1
    33   20   24 1
    34   20   35 1
    35   22   25 1
    36   23   24 1
    37   25   26 1
    38   26   28 1
    39    1   36 1
    40    2   37 1
    41    3   38 1
    42    4   39 1
    43    5   40 1
    44    6   41 1
    45   16   42 1
    46   16   43 1
    47   17   44 1
    48   17   45 1
    49   18   46 1
    50   19   47 1
    51   20   48 1
    52   21   49 1
    53   21   50 1
    54   22   51 1
    55   22   52 1
    56   23   53 1
    57   23   54 1
    58   24   55 1
    59   24   56 1
    60   25   57 1
    61   25   58 1
    62   26   59 1
    63   26   60 1
    64   27   61 1
    65   28   62 1
    66   28   63 1
    67   28   64 1
