@<TRIPOS>MOLECULE
AVX38708_1_1
   56    59     0     0     0
SMALL
USER_CHARGES

@<TRIPOS>ATOM
      1 C1        9.1503  -42.2226   -1.1007 C.ar      1 <0>        -0.1186
      2 C2        9.6081  -48.1963    5.4816 C.ar      1 <0>        -0.1001
      3 C3        8.8472  -41.7262    0.1674 C.ar      1 <0>        -0.1363
      4 C4        8.7614  -43.5149   -1.4550 C.ar      1 <0>        -0.1196
      5 C5       10.5713  -49.0273    4.9096 C.ar      1 <0>        -0.1112
      6 C6        8.7065  -47.5103    4.6668 C.ar      1 <0>        -0.0893
      7 C7        8.1549  -42.5211    1.0816 C.ar      1 <0>        -0.1167
      8 C8        8.0690  -44.3098   -0.5407 C.ar      1 <0>        -0.0956
      9 C9       10.6331  -49.1720    3.5229 C.ar      1 <0>        -0.1101
     10 C10      11.3351  -45.6447   -1.8745 C.ar      1 <0>        -0.1180
     11 C11      12.1804  -45.1292   -2.8604 C.ar      1 <0>        -0.1356
     12 C12       8.7684  -47.6551    3.2801 C.ar      1 <0>        -0.0870
     13 C13      13.2097  -45.9109   -0.3430 C.ar      1 <0>        -0.0718
     14 C14       7.7658  -43.8130    0.7275 C.ar      1 <0>        -0.0981
     15 C15       9.7316  -48.4859    2.7081 C.ar      1 <0>        -0.1049
     16 C16      11.8467  -46.0331   -0.6229 C.ar      1 <0>        -0.1521
     17 C17      13.5220  -45.0188   -2.5586 C.ar      1 <0>         0.0750
     18 C18      14.0228  -45.3991   -1.3337 C.ar      1 <0>         0.0818
     19 C19       7.8155  -46.9263    2.4527 C.2       1 <0>         0.6480
     20 C20      13.7687  -46.3107    0.9595 C.2       1 <0>         0.9201
     21 C21      15.6561  -44.6645   -2.5483 C.3       1 <0>         0.3166
     22 C22      11.5054  -48.7738   -0.6146 C.3       1 <0>         0.0933
     23 C23       7.0207  -44.6687    1.7117 C.3       1 <0>         0.1210
     24 C24       9.8213  -48.6594    1.2198 C.3       1 <0>         0.1586
     25 C25      10.9017  -46.5791    0.3989 C.3       1 <0>         0.1805
     26 N1        7.9076  -45.5307    2.4604 N.am      1 <0>        -0.5177
     27 N2       11.0612  -48.0406    0.6259 N.4       1 <0>        -0.7161
     28 O1       15.0031  -46.0455    1.2114 O.co2     1 <0>        -0.7176
     29 O2        6.9562  -47.5378    1.7954 O.2       1 <0>        -0.6468
     30 O3       13.0050  -46.9129    1.8041 O.co2     1 <0>        -0.8827
     31 O4       14.4898  -44.5415   -3.3881 O.3       1 <0>        -0.3356
     32 O5       15.3668  -45.2076   -1.2430 O.3       1 <0>        -0.3053
     33 H1        9.6895  -41.6035   -1.8122 H         1 <0>         0.1257
     34 H2        9.5601  -48.0831    6.5613 H         1 <0>         0.1452
     35 H3        9.1505  -40.7205    0.4429 H         1 <0>         0.1217
     36 H4        8.9982  -43.9021   -2.4421 H         1 <0>         0.1323
     37 H5       11.2737  -49.5605    5.5443 H         1 <0>         0.1423
     38 H6        7.9609  -46.8652    5.1242 H         1 <0>         0.1532
     39 H7        7.9236  -42.1258    2.0678 H         1 <0>         0.1165
     40 H8        7.7699  -45.3152   -0.8251 H         1 <0>         0.1336
     41 H9       11.3878  -49.8215    3.0875 H         1 <0>         0.1320
     42 H10      10.2730  -45.7431   -2.0850 H         1 <0>         0.1273
     43 H11      11.7901  -44.8284   -3.8266 H         1 <0>         0.1554
     44 H12      16.3801  -45.3179   -3.0483 H         1 <0>         0.0699
     45 H13      16.1043  -43.6722   -2.4246 H         1 <0>         0.0766
     46 H14      10.7273  -48.6530   -1.3709 H         1 <0>         0.0646
     47 H15      12.4463  -48.3308   -0.9461 H         1 <0>         0.1027
     48 H16      11.6374  -49.8249   -0.3512 H         1 <0>         0.0927
     49 H17       6.4726  -44.0464    2.4275 H         1 <0>         0.0756
     50 H18       6.2871  -45.3032    1.2034 H         1 <0>         0.0533
     51 H19       9.8366  -49.7195    0.9455 H         1 <0>         0.1235
     52 H20       8.9666  -48.1962    0.7147 H         1 <0>         0.0746
     53 H21      11.0422  -46.0969    1.3748 H         1 <0>         0.1225
     54 H22       9.8570  -46.4231    0.1018 H         1 <0>         0.0652
     55 H23       8.5879  -45.0808    3.0645 H         1 <0>         0.3613
     56 H24      11.8129  -48.1705    1.3233 H         1 <0>         0.5239
@<TRIPOS>BOND
     1    1    3 ar
     2    1    4 ar
     3    2    5 ar
     4    2    6 ar
     5    3    7 ar
     6    4    8 ar
     7    5    9 ar
     8    6   12 ar
     9    7   14 ar
    10    8   14 ar
    11    9   15 ar
    12   10   11 ar
    13   10   16 ar
    14   11   17 ar
    15   12   15 ar
    16   12   19 1
    17   13   16 ar
    18   13   18 ar
    19   13   20 1
    20   14   23 1
    21   15   24 1
    22   16   25 1
    23   17   18 ar
    24   17   31 1
    25   18   32 1
    26   19   26 am
    27   19   29 2
    28   20   28 1
    29   20   30 2
    30   21   31 1
    31   21   32 1
    32   22   27 1
    33   23   26 1
    34   24   27 1
    35   25   27 1
    36    1   33 1
    37    2   34 1
    38    3   35 1
    39    4   36 1
    40    5   37 1
    41    6   38 1
    42    7   39 1
    43    8   40 1
    44    9   41 1
    45   10   42 1
    46   11   43 1
    47   21   44 1
    48   21   45 1
    49   22   46 1
    50   22   47 1
    51   22   48 1
    52   23   49 1
    53   23   50 1
    54   24   51 1
    55   24   52 1
    56   25   53 1
    57   25   54 1
    58   26   55 1
    59   27   56 1
@<TRIPOS>MOLECULE
AVX38708_1_2
   56    59     0     0     0
SMALL
USER_CHARGES

@<TRIPOS>ATOM
      1 C1        9.5218  -25.1106   -0.9770 C.ar      1 <0>        -0.1186
      2 C2        5.8275  -18.2919   -2.3363 C.ar      1 <0>        -0.1001
      3 C3        8.6917  -25.7339   -0.0429 C.ar      1 <0>        -0.1363
      4 C4        9.0462  -24.0332   -1.7265 C.ar      1 <0>        -0.1196
      5 C5        4.6537  -17.5530   -2.1879 C.ar      1 <0>        -0.1112
      6 C6        5.8028  -19.6786   -2.1815 C.ar      1 <0>        -0.0893
      7 C7        7.3857  -25.2799    0.1419 C.ar      1 <0>        -0.1167
      8 C8        7.7401  -23.5792   -1.5418 C.ar      1 <0>        -0.0956
      9 C9        3.4554  -18.2009   -1.8845 C.ar      1 <0>        -0.1101
     10 C10       0.6385  -23.0987   -3.8339 C.ar      1 <0>        -0.1180
     11 C11       1.0596  -24.4149   -4.0381 C.ar      1 <0>        -0.1356
     12 C12       4.6044  -20.3265   -1.8780 C.ar      1 <0>        -0.0870
     13 C13       0.7491  -23.3945   -1.4173 C.ar      1 <0>        -0.0718
     14 C14       6.9099  -24.2026   -0.6076 C.ar      1 <0>        -0.0981
     15 C15       3.4307  -19.5877   -1.7295 C.ar      1 <0>        -0.1049
     16 C16       0.4843  -22.5914   -2.5311 C.ar      1 <0>        -0.1521
     17 C17       1.3144  -25.1869   -2.9215 C.ar      1 <0>         0.0750
     18 C18       1.1636  -24.6904   -1.6463 C.ar      1 <0>         0.0818
     19 C19       4.6071  -21.7754   -1.7207 C.2       1 <0>         0.6480
     20 C20       0.5951  -22.8860   -0.0439 C.2       1 <0>         0.9201
     21 C21       1.8247  -26.7464   -1.5081 C.3       1 <0>         0.3166
     22 C22       1.8029  -20.2807   -3.8752 C.3       1 <0>         0.0933
     23 C23       5.5040  -23.7141   -0.4090 C.3       1 <0>         0.1210
     24 C24       2.1281  -20.2585   -1.4024 C.3       1 <0>         0.1586
     25 C25       0.0311  -21.1767   -2.3648 C.3       1 <0>         0.1805
     26 N1        5.3806  -22.2988   -0.6786 N.am      1 <0>        -0.5177
     27 N2        1.1283  -20.1844   -2.5288 N.4       1 <0>        -0.7161
     28 O1        1.5785  -22.2546    0.4966 O.co2     1 <0>        -0.7176
     29 O2        3.9606  -22.4937   -2.5018 O.2       1 <0>        -0.6468
     30 O3       -0.5180  -23.0896    0.5722 O.co2     1 <0>        -0.8827
     31 O4        1.7310  -26.4826   -2.9244 O.3       1 <0>        -0.3356
     32 O5        1.4665  -25.6130   -0.6911 O.3       1 <0>        -0.3053
     33 H1       10.5386  -25.4641   -1.1211 H         1 <0>         0.1257
     34 H2        6.7608  -17.7875   -2.5721 H         1 <0>         0.1452
     35 H3        9.0621  -26.5729    0.5404 H         1 <0>         0.1217
     36 H4        9.6922  -23.5484   -2.4544 H         1 <0>         0.1323
     37 H5        4.6736  -16.4731   -2.3075 H         1 <0>         0.1423
     38 H6        6.7240  -20.2434   -2.2989 H         1 <0>         0.1532
     39 H7        6.7456  -25.7722    0.8714 H         1 <0>         0.1165
     40 H8        7.3777  -22.7394   -2.1304 H         1 <0>         0.1336
     41 H9        2.5466  -17.6158   -1.7704 H         1 <0>         0.1320
     42 H10       0.4302  -22.4676   -4.6959 H         1 <0>         0.1273
     43 H11       1.1798  -24.8099   -5.0408 H         1 <0>         0.1554
     44 H12       1.1586  -27.5819   -1.2608 H         1 <0>         0.0699
     45 H13       2.8550  -27.0369   -1.2735 H         1 <0>         0.0766
     46 H14       2.2566  -21.2706   -3.9503 H         1 <0>         0.0646
     47 H15       1.0397  -20.1391   -4.6430 H         1 <0>         0.1027
     48 H16       2.5611  -19.4963   -3.9272 H         1 <0>         0.0927
     49 H17       4.8133  -24.2451   -1.0732 H         1 <0>         0.0756
     50 H18       5.1674  -23.8913    0.6194 H         1 <0>         0.0533
     51 H19       2.2740  -21.3213   -1.1800 H         1 <0>         0.1235
     52 H20       1.6534  -19.7981   -0.5287 H         1 <0>         0.0746
     53 H21      -0.7380  -20.9120   -3.1017 H         1 <0>         0.1225
     54 H22      -0.3956  -21.0077   -1.3671 H         1 <0>         0.0652
     55 H23       5.9388  -21.6704   -0.1099 H         1 <0>         0.3613
     56 H24       0.7087  -19.2413   -2.4840 H         1 <0>         0.5239
@<TRIPOS>BOND
     1    1    3 ar
     2    1    4 ar
     3    2    5 ar
     4    2    6 ar
     5    3    7 ar
     6    4    8 ar
     7    5    9 ar
     8    6   12 ar
     9    7   14 ar
    10    8   14 ar
    11    9   15 ar
    12   10   11 ar
    13   10   16 ar
    14   11   17 ar
    15   12   15 ar
    16   12   19 1
    17   13   16 ar
    18   13   18 ar
    19   13   20 1
    20   14   23 1
    21   15   24 1
    22   16   25 1
    23   17   18 ar
    24   17   31 1
    25   18   32 1
    26   19   26 am
    27   19   29 2
    28   20   28 1
    29   20   30 2
    30   21   31 1
    31   21   32 1
    32   22   27 1
    33   23   26 1
    34   24   27 1
    35   25   27 1
    36    1   33 1
    37    2   34 1
    38    3   35 1
    39    4   36 1
    40    5   37 1
    41    6   38 1
    42    7   39 1
    43    8   40 1
    44    9   41 1
    45   10   42 1
    46   11   43 1
    47   21   44 1
    48   21   45 1
    49   22   46 1
    50   22   47 1
    51   22   48 1
    52   23   49 1
    53   23   50 1
    54   24   51 1
    55   24   52 1
    56   25   53 1
    57   25   54 1
    58   26   55 1
    59   27   56 1
