@<TRIPOS>MOLECULE
AVX38784_1_15
   66    68     0     0     0
SMALL
USER_CHARGES

@<TRIPOS>ATOM
      1 C1       14.3942  -27.8099  -22.0350 C.ar      1 <0>        -0.1045
      2 C2       13.4734  -27.6569  -20.9961 C.ar      1 <0>        -0.1135
      3 C3       14.1959  -27.1443  -23.2447 C.ar      1 <0>        -0.0891
      4 C4       12.3539  -26.8386  -21.1668 C.ar      1 <0>        -0.1073
      5 C5        7.0734  -27.9390  -21.3243 C.ar      1 <0>        -0.1236
      6 C6        5.7085  -28.2067  -21.4341 C.ar      1 <0>        -0.1496
      7 C7       13.0765  -26.3258  -23.4154 C.ar      1 <0>        -0.0916
      8 C8        6.6595  -25.6032  -21.8191 C.ar      1 <0>        -0.0778
      9 C9       12.1555  -26.1729  -22.3765 C.ar      1 <0>        -0.1027
     10 C10       7.5487  -26.6403  -21.5220 C.ar      1 <0>        -0.1843
     11 C11       4.8203  -27.1726  -21.7448 C.ar      1 <0>         0.0999
     12 C12       5.2929  -25.8675  -21.9155 C.ar      1 <0>         0.0737
     13 C13      12.8931  -25.6432  -24.6890 C.2       1 <0>         0.6462
     14 C14       7.1656  -24.2274  -22.0171 C.2       1 <0>         0.9187
     15 C15      -0.5692  -28.5766  -22.7680 C.2       1 <0>         0.9112
     16 C16       3.0950  -25.1105  -21.9228 C.3       1 <0>         0.0865
     17 C17       2.7370  -26.4713  -22.5130 C.3       1 <0>         0.0987
     18 C18       9.5212  -26.8783  -27.1640 C.3       1 <0>        -0.0877
     19 C19      12.3982  -26.6082  -27.9900 C.3       1 <0>        -0.1220
     20 C20       9.8934  -27.3242  -23.5465 C.3       1 <0>         0.0921
     21 C21      10.9425  -25.2996  -22.5329 C.3       1 <0>         0.1528
     22 C22       9.0174  -26.3893  -21.4047 C.3       1 <0>         0.1881
     23 C23       0.9069  -28.1679  -22.8398 C.3       1 <0>        -0.1996
     24 C24       1.2610  -26.7861  -22.3167 C.3       1 <0>        -0.0544
     25 C25      10.2615  -25.5458  -27.1699 C.3       1 <0>        -0.0884
     26 C26      11.7682  -25.7074  -26.9269 C.3       1 <0>         0.0986
     27 N1       12.0183  -26.2679  -25.6120 N.am      1 <0>        -0.5184
     28 N2        9.6688  -26.0869  -22.7078 N.4       1 <0>        -0.7111
     29 O1        7.1488  -23.4142  -21.0195 O.co2     1 <0>        -0.7374
     30 O2       -0.8038  -29.7872  -22.4909 O.co2     1 <0>        -0.8465
     31 O3       13.4991  -24.5841  -24.9282 O.2       1 <0>        -0.6520
     32 O4        7.6029  -23.8963  -23.1793 O.co2     1 <0>        -0.9020
     33 O5       -1.3819  -27.6283  -22.9870 O.co2     1 <0>        -0.8520
     34 O6        4.4676  -24.8046  -22.1889 O.3       1 <0>        -0.2993
     35 O7        3.4953  -27.5015  -21.8594 O.3       1 <0>        -0.2996
     36 H1       15.2657  -28.4477  -21.9025 H         1 <0>         0.1395
     37 H2       13.6275  -28.1762  -20.0547 H         1 <0>         0.1381
     38 H3       14.9203  -27.2720  -24.0471 H         1 <0>         0.1514
     39 H4       11.6422  -26.7265  -20.3511 H         1 <0>         0.1322
     40 H5        7.7598  -28.7513  -21.0886 H         1 <0>         0.1156
     41 H6        5.3477  -29.2225  -21.2873 H         1 <0>         0.1541
     42 H7        2.4875  -24.3163  -22.3736 H         1 <0>         0.0859
     43 H8        2.9370  -25.0803  -20.8366 H         1 <0>         0.0606
     44 H9        2.9758  -26.5053  -23.5844 H         1 <0>         0.0592
     45 H10       9.6509  -27.4037  -26.2129 H         1 <0>         0.0277
     46 H11       8.4489  -26.7111  -27.3105 H         1 <0>         0.0279
     47 H12       9.8778  -27.5315  -27.9707 H         1 <0>         0.0375
     48 H13      11.9410  -27.6040  -27.9852 H         1 <0>         0.0870
     49 H14      12.2795  -26.1816  -28.9925 H         1 <0>         0.0360
     50 H15      13.4724  -26.7308  -27.8103 H         1 <0>         0.0212
     51 H16      10.5722  -27.9832  -22.9997 H         1 <0>         0.0619
     52 H17       8.9245  -27.8021  -23.7026 H         1 <0>         0.1142
     53 H18      10.3333  -27.0099  -24.4951 H         1 <0>         0.0879
     54 H19      10.7974  -24.6560  -21.6553 H         1 <0>         0.1208
     55 H20      11.0337  -24.6497  -23.4100 H         1 <0>         0.0735
     56 H21       9.2264  -25.5338  -20.7462 H         1 <0>         0.1169
     57 H22       9.5431  -27.2622  -20.9921 H         1 <0>         0.0592
     58 H23       1.1821  -28.2035  -23.9015 H         1 <0>         0.0216
     59 H24       1.5069  -28.9338  -22.3283 H         1 <0>         0.0363
     60 H25       1.0275  -26.6800  -21.2587 H         1 <0>         0.0647
     61 H26       0.6953  -26.0270  -22.8598 H         1 <0>         0.0629
     62 H27      10.0976  -25.0651  -28.1418 H         1 <0>         0.0641
     63 H28       9.8203  -24.8877  -26.4069 H         1 <0>         0.0427
     64 H29      12.2512  -24.7232  -26.9635 H         1 <0>         0.0623
     65 H30      11.6141  -27.1462  -25.3906 H         1 <0>         0.3643
     66 H31       9.0254  -25.4825  -23.2465 H         1 <0>         0.5209
@<TRIPOS>BOND
     1    1    2 ar
     2    1    3 ar
     3    2    4 ar
     4    3    7 ar
     5    4    9 ar
     6    5    6 ar
     7    5   10 ar
     8    6   11 ar
     9    7    9 ar
    10    7   13 1
    11    8   10 ar
    12    8   12 ar
    13    8   14 1
    14    9   21 1
    15   10   22 1
    16   11   12 ar
    17   11   35 1
    18   12   34 1
    19   13   27 am
    20   13   31 2
    21   14   29 1
    22   14   32 2
    23   15   23 1
    24   15   30 1
    25   15   33 2
    26   16   17 1
    27   16   34 1
    28   17   24 1
    29   17   35 1
    30   18   25 1
    31   19   26 1
    32   20   28 1
    33   21   28 1
    34   22   28 1
    35   23   24 1
    36   25   26 1
    37   26   27 1
    38    1   36 1
    39    2   37 1
    40    3   38 1
    41    4   39 1
    42    5   40 1
    43    6   41 1
    44   16   42 1
    45   16   43 1
    46   17   44 1
    47   18   45 1
    48   18   46 1
    49   18   47 1
    50   19   48 1
    51   19   49 1
    52   19   50 1
    53   20   51 1
    54   20   52 1
    55   20   53 1
    56   21   54 1
    57   21   55 1
    58   22   56 1
    59   22   57 1
    60   23   58 1
    61   23   59 1
    62   24   60 1
    63   24   61 1
    64   25   62 1
    65   25   63 1
    66   26   64 1
    67   27   65 1
    68   28   66 1
