@<TRIPOS>MOLECULE
AVX38789_1_11
   64    67     0     0     0
SMALL
USER_CHARGES

@<TRIPOS>ATOM
      1 C1       21.6030  -38.0489   -5.9319 C.ar      1 <0>        -0.1108
      2 C2       22.4175  -37.4875   -4.9482 C.ar      1 <0>        -0.1073
      3 C3       21.1017  -45.3886   -8.4388 C.2       1 <0>        -0.2755
      4 C4       22.1208  -39.0083   -6.8020 C.ar      1 <0>        -0.1005
      5 C5       23.7500  -37.8854   -4.8345 C.ar      1 <0>        -0.1062
      6 C6       26.2510  -42.3853   -1.9309 C.ar      1 <0>        -0.1329
      7 C7       25.9447  -43.5914   -1.3005 C.ar      1 <0>        -0.1527
      8 C8       21.4603  -44.0671   -8.7964 C.2       1 <0>        -0.2252
      9 C9       22.2120  -45.9362   -7.8388 C.2       1 <0>         0.2769
     10 C10      23.4533  -39.4063   -6.6884 C.ar      1 <0>        -0.1282
     11 C11      24.0517  -42.3460   -2.9346 C.ar      1 <0>        -0.0551
     12 C12      24.2680  -38.8447   -5.7046 C.ar      1 <0>        -0.0970
     13 C13      25.3037  -41.7608   -2.7430 C.ar      1 <0>        -0.2041
     14 C14      24.6893  -44.1733   -1.4838 C.ar      1 <0>         0.0966
     15 C15      23.7515  -43.5603   -2.3169 C.ar      1 <0>         0.0567
     16 C16      22.7643  -43.9012   -8.3892 C.2       1 <0>         0.1613
     17 C17      23.9687  -40.4092   -7.6104 C.2       1 <0>         0.6499
     18 C18      23.0438  -41.6723   -3.7790 C.2       1 <0>         0.9169
     19 C19      22.0844  -45.0088    2.8754 C.2       1 <0>         0.9108
     20 C20      22.4689  -45.4825   -2.2310 C.3       1 <0>         0.0851
     21 C21      23.0707  -45.7562   -0.8578 C.3       1 <0>         0.0987
     22 C22      27.1953  -41.2182   -5.2007 C.3       1 <0>         0.0549
     23 C23      25.7046  -39.2535   -5.5602 C.3       1 <0>         0.1411
     24 C24      25.6577  -40.4619   -3.3912 C.3       1 <0>         0.1889
     25 C25      23.7259  -42.7505   -8.4670 C.3       1 <0>         0.0638
     26 C26      22.7512  -45.6227    1.6389 C.3       1 <0>        -0.1985
     27 C27      22.2934  -45.1097    0.2871 C.3       1 <0>        -0.0548
     28 N1       23.3192  -41.6479   -7.6259 N.am      1 <0>        -0.5535
     29 N2       25.8743  -40.5770   -4.8586 N.4       1 <0>        -0.6756
     30 O1       22.3026  -40.7671   -3.2470 O.co2     1 <0>        -0.8386
     31 O2       22.3722  -45.5308    3.9870 O.co2     1 <0>        -0.8481
     32 O3       24.9543  -40.1592   -8.3251 O.2       1 <0>        -0.5993
     33 O4       22.9464  -42.0175   -5.0131 O.co2     1 <0>        -0.7790
     34 O5       21.3253  -44.0294    2.6225 O.co2     1 <0>        -0.8529
     35 O6       23.2296  -45.0359   -7.8045 O.3       1 <0>        -0.3700
     36 O7       22.5099  -44.0906   -2.5494 O.3       1 <0>        -0.2896
     37 O8       24.4426  -45.3403   -0.8108 O.3       1 <0>        -0.3041
     38 H1       20.5654  -37.7388   -6.0210 H         1 <0>         0.1471
     39 H2       22.0143  -36.7397   -4.2717 H         1 <0>         0.1494
     40 H3       20.1528  -45.8805   -8.5985 H         1 <0>         0.1738
     41 H4       21.4763  -39.4380   -7.5651 H         1 <0>         0.1518
     42 H5       24.3762  -37.4414   -4.0648 H         1 <0>         0.1491
     43 H6       27.2334  -41.9422   -1.7866 H         1 <0>         0.1016
     44 H7       26.6924  -44.0765   -0.6777 H         1 <0>         0.1510
     45 H8       20.8432  -43.3296   -9.2894 H         1 <0>         0.1627
     46 H9       22.4280  -46.9019   -7.4063 H         1 <0>         0.0785
     47 H10      23.0310  -46.0144   -3.0126 H         1 <0>         0.0880
     48 H11      21.4207  -45.8217   -2.2925 H         1 <0>         0.0502
     49 H12      23.0751  -46.8739   -0.6788 H         1 <0>         0.0657
     50 H13      27.9888  -40.5766   -4.8126 H         1 <0>         0.0952
     51 H14      27.2206  -42.2026   -4.7295 H         1 <0>         0.1869
     52 H15      27.2544  -41.3016   -6.2874 H         1 <0>         0.0705
     53 H16      26.1887  -39.3515   -6.5378 H         1 <0>         0.1214
     54 H17      26.2701  -38.5156   -4.9806 H         1 <0>         0.0992
     55 H18      24.8660  -39.7146   -3.2523 H         1 <0>         0.0684
     56 H19      26.5827  -40.0430   -2.9732 H         1 <0>         0.1375
     57 H20      24.7282  -43.0626   -8.1527 H         1 <0>         0.0909
     58 H21      23.8086  -42.3765   -9.4929 H         1 <0>         0.0750
     59 H22      22.5348  -46.6976    1.6780 H         1 <0>         0.0244
     60 H23      23.8385  -45.5101    1.7369 H         1 <0>         0.0350
     61 H24      22.4019  -44.0297    0.2054 H         1 <0>         0.0603
     62 H25      21.2413  -45.3524    0.1379 H         1 <0>         0.0635
     63 H26      22.5587  -41.8193   -6.9761 H         1 <0>         0.3233
     64 H27      25.1430  -41.2022   -5.2360 H         1 <0>         0.4377
@<TRIPOS>BOND
     1    1    2 ar
     2    1    4 ar
     3    2    5 ar
     4    3    8 1
     5    3    9 2
     6    4   10 ar
     7    5   12 ar
     8    6    7 ar
     9    6   13 ar
    10    7   14 ar
    11    8   16 2
    12    9   35 1
    13   10   12 ar
    14   10   17 1
    15   11   13 ar
    16   11   15 ar
    17   11   18 1
    18   12   23 1
    19   13   24 1
    20   14   15 ar
    21   14   37 1
    22   15   36 1
    23   16   25 1
    24   16   35 1
    25   17   28 am
    26   17   32 2
    27   18   30 1
    28   18   33 2
    29   19   26 1
    30   19   31 1
    31   19   34 2
    32   20   21 1
    33   20   36 1
    34   21   27 1
    35   21   37 1
    36   22   29 1
    37   23   29 1
    38   24   29 1
    39   25   28 1
    40   26   27 1
    41    1   38 1
    42    2   39 1
    43    3   40 1
    44    4   41 1
    45    5   42 1
    46    6   43 1
    47    7   44 1
    48    8   45 1
    49    9   46 1
    50   20   47 1
    51   20   48 1
    52   21   49 1
    53   22   50 1
    54   22   51 1
    55   22   52 1
    56   23   53 1
    57   23   54 1
    58   24   55 1
    59   24   56 1
    60   25   57 1
    61   25   58 1
    62   26   59 1
    63   26   60 1
    64   27   61 1
    65   27   62 1
    66   28   63 1
    67   29   64 1
