@<TRIPOS>MOLECULE
AVX38786_1_26
   71    74     0     0     0
SMALL
USER_CHARGES

@<TRIPOS>ATOM
      1 C1       -3.1912  -26.5782  -20.2399 C.ar      1 <0>        -0.1104
      2 C2       -3.1224  -25.7032  -21.3242 C.ar      1 <0>        -0.1096
      3 C3       -2.5586  -27.8201  -20.3041 C.ar      1 <0>        -0.1024
      4 C4       -2.4213  -26.0703  -22.4728 C.ar      1 <0>        -0.1056
      5 C5        3.0082  -27.0832  -22.5364 C.ar      1 <0>        -0.1370
      6 C6        2.4804  -30.4946  -22.1117 C.ar      1 <0>        -0.0843
      7 C7        2.9741  -30.7243  -19.7580 C.ar      1 <0>        -0.0938
      8 C8        4.3665  -26.9988  -22.2283 C.ar      1 <0>        -0.1545
      9 C9        3.8347  -30.2880  -22.3755 C.ar      1 <0>        -0.1697
     10 C10       4.3285  -30.5178  -20.0218 C.ar      1 <0>        -0.1972
     11 C11      -1.8575  -28.1871  -21.4527 C.ar      1 <0>        -0.1277
     12 C12       3.1449  -24.9878  -23.7359 C.ar      1 <0>        -0.0593
     13 C13       2.0500  -30.7127  -20.8030 C.ar      1 <0>        -0.1893
     14 C14      -1.7888  -27.3122  -22.5371 C.ar      1 <0>        -0.1005
     15 C15       2.3971  -26.0763  -23.2843 C.ar      1 <0>        -0.1943
     16 C16       5.1118  -25.9035  -22.6677 C.ar      1 <0>         0.0933
     17 C17       4.5063  -24.9096  -23.4399 C.ar      1 <0>         0.0612
     18 C18       4.7590  -30.2996  -21.3299 C.ar      1 <0>         0.1532
     19 C19      -1.2070  -29.4903  -21.4936 C.2       1 <0>         0.6499
     20 C20       2.4964  -23.9293  -24.5368 C.2       1 <0>         0.9140
     21 C21      10.7197  -23.3550  -22.0521 C.2       1 <0>         0.9108
     22 C22       6.6085  -24.0211  -23.8703 C.3       1 <0>         0.0858
     23 C23       7.0098  -24.5650  -22.5056 C.3       1 <0>         0.0980
     24 C24       1.1671  -28.4355  -24.6574 C.3       1 <0>         0.0563
     25 C25       6.9782  -30.1799  -20.4830 C.3       1 <0>         0.1047
     26 C26       0.5922  -30.9352  -20.5192 C.3       1 <0>         0.1408
     27 C27      -1.0423  -27.6816  -23.7850 C.3       1 <0>         0.1411
     28 C28       0.9387  -26.1937  -23.5904 C.3       1 <0>         0.1834
     29 C29       9.1867  -23.3720  -22.0863 C.3       1 <0>        -0.1984
     30 C30       8.5207  -24.7024  -22.3867 C.3       1 <0>        -0.0534
     31 N1       -0.1648  -29.7057  -20.5859 N.am      1 <0>        -0.5567
     32 N2        0.4547  -27.6014  -23.6231 N.4       1 <0>        -0.6748
     33 O1        2.4361  -24.0746  -25.8124 O.co2     1 <0>        -0.8375
     34 O2       11.2643  -22.2582  -21.7452 O.co2     1 <0>        -0.8459
     35 O3       -1.5654  -30.3474  -22.3199 O.2       1 <0>        -0.5985
     36 O4        2.0178  -22.9036  -23.9272 O.co2     1 <0>        -0.7786
     37 O5       11.2558  -24.4672  -22.3284 O.co2     1 <0>        -0.8541
     38 O6        5.1916  -23.8278  -23.9284 O.3       1 <0>        -0.2907
     39 O7        6.4357  -25.8667  -22.3162 O.3       1 <0>        -0.3064
     40 O8        6.0807  -30.0995  -21.5873 O.3       1 <0>        -0.3205
     41 H1       -3.7377  -26.2928  -19.3454 H         1 <0>         0.1467
     42 H2       -3.6160  -24.7368  -21.2741 H         1 <0>         0.1483
     43 H3       -2.6199  -28.4935  -19.4528 H         1 <0>         0.1509
     44 H4       -2.3743  -25.3814  -23.3121 H         1 <0>         0.1489
     45 H5        2.4329  -27.9362  -22.1846 H         1 <0>         0.1024
     46 H6        1.7673  -30.4839  -22.9318 H         1 <0>         0.1356
     47 H7        2.6479  -30.8926  -18.7350 H         1 <0>         0.1288
     48 H8        4.8328  -27.7827  -21.6379 H         1 <0>         0.1496
     49 H9        4.1647  -30.1187  -23.3967 H         1 <0>         0.1518
     50 H10       5.0432  -30.5269  -19.2032 H         1 <0>         0.1627
     51 H11       7.0803  -23.0494  -24.0546 H         1 <0>         0.0894
     52 H12       6.8988  -24.6999  -24.6831 H         1 <0>         0.0437
     53 H13       6.6418  -23.9108  -21.7039 H         1 <0>         0.0671
     54 H14       0.9547  -28.0050  -25.6376 H         1 <0>         0.0952
     55 H15       2.2358  -28.4003  -24.4363 H         1 <0>         0.1867
     56 H16       0.7841  -29.4563  -24.5860 H         1 <0>         0.0738
     57 H17       7.9998  -30.0002  -20.8276 H         1 <0>         0.0741
     58 H18       6.9050  -31.1703  -20.0256 H         1 <0>         0.0371
     59 H19       6.7061  -29.4191  -19.7472 H         1 <0>         0.0623
     60 H20       0.1604  -31.6376  -21.2415 H         1 <0>         0.0774
     61 H21       0.4468  -31.3645  -19.5223 H         1 <0>         0.0597
     62 H22      -1.2715  -28.7077  -24.0950 H         1 <0>         0.1228
     63 H23      -1.3047  -27.0159  -24.6144 H         1 <0>         0.0991
     64 H24       0.3282  -25.6729  -22.8417 H         1 <0>         0.0692
     65 H25       0.6979  -25.7606  -24.5697 H         1 <0>         0.1414
     66 H26       8.8917  -22.6666  -22.8733 H         1 <0>         0.0243
     67 H27       8.8127  -22.9682  -21.1370 H         1 <0>         0.0348
     68 H28       8.7357  -25.4455  -21.6208 H         1 <0>         0.0601
     69 H29       8.8830  -25.0896  -23.3388 H         1 <0>         0.0632
     70 H30       0.1284  -28.9487  -19.9758 H         1 <0>         0.3149
     71 H31       0.6717  -28.0291  -22.7080 H         1 <0>         0.4368
@<TRIPOS>BOND
     1    1    2 ar
     2    1    3 ar
     3    2    4 ar
     4    3   11 ar
     5    4   14 ar
     6    5    8 ar
     7    5   15 ar
     8    6    9 ar
     9    6   13 ar
    10    7   10 ar
    11    7   13 ar
    12    8   16 ar
    13    9   18 ar
    14   10   18 ar
    15   11   14 ar
    16   11   19 1
    17   12   15 ar
    18   12   17 ar
    19   12   20 1
    20   13   26 1
    21   14   27 1
    22   15   28 1
    23   16   17 ar
    24   16   39 1
    25   17   38 1
    26   18   40 1
    27   19   31 am
    28   19   35 2
    29   20   33 1
    30   20   36 2
    31   21   29 1
    32   21   34 1
    33   21   37 2
    34   22   23 1
    35   22   38 1
    36   23   30 1
    37   23   39 1
    38   24   32 1
    39   25   40 1
    40   26   31 1
    41   27   32 1
    42   28   32 1
    43   29   30 1
    44    1   41 1
    45    2   42 1
    46    3   43 1
    47    4   44 1
    48    5   45 1
    49    6   46 1
    50    7   47 1
    51    8   48 1
    52    9   49 1
    53   10   50 1
    54   22   51 1
    55   22   52 1
    56   23   53 1
    57   24   54 1
    58   24   55 1
    59   24   56 1
    60   25   57 1
    61   25   58 1
    62   25   59 1
    63   26   60 1
    64   26   61 1
    65   27   62 1
    66   27   63 1
    67   28   64 1
    68   28   65 1
    69   29   66 1
    70   29   67 1
    71   30   68 1
    72   30   69 1
    73   31   70 1
    74   32   71 1
