@<TRIPOS>MOLECULE
AVX38741_0_13
   65    69     0     0     0
SMALL
USER_CHARGES

@<TRIPOS>ATOM
      1 C1        9.3471  -26.2153  -29.1152 C.ar      1 <0>        -0.1229
      2 C2       14.3871  -27.8204  -22.5154 C.ar      1 <0>        -0.1089
      3 C3       13.7892  -28.0000  -21.2700 C.ar      1 <0>        -0.0974
      4 C4        9.6854  -24.8649  -29.0284 C.ar      1 <0>        -0.1336
      5 C5        9.2451  -26.9845  -27.9562 C.ar      1 <0>        -0.1299
      6 C6       13.8160  -26.9537  -23.4456 C.ar      1 <0>        -0.0723
      7 C7       12.6207  -27.3085  -20.9475 C.ar      1 <0>        -0.0936
      8 C8        9.9219  -24.2836  -27.7826 C.ar      1 <0>        -0.1093
      9 C9        9.4816  -26.4033  -26.7102 C.ar      1 <0>        -0.1451
     10 C10       6.7452  -26.7300  -21.0762 C.ar      1 <0>        -0.1487
     11 C11       5.5096  -27.3771  -21.0935 C.ar      1 <0>        -0.1538
     12 C12      12.6357  -26.2692  -23.1302 C.ar      1 <0>        -0.1195
     13 C13       6.1548  -25.5352  -23.0929 C.ar      1 <0>        -0.0656
     14 C14      12.0340  -26.4300  -21.8685 C.ar      1 <0>        -0.0942
     15 C15       9.8202  -25.0528  -26.6234 C.ar      1 <0>        -0.1367
     16 C16       7.0694  -25.8145  -22.0777 C.ar      1 <0>        -0.1958
     17 C17       4.5794  -27.0687  -22.0945 C.ar      1 <0>         0.0957
     18 C18       4.9136  -26.1716  -23.1032 C.ar      1 <0>         0.0756
     19 C19      12.0722  -25.3504  -24.1521 C.2       1 <0>         0.7070
     20 C20       6.4976  -24.5571  -24.1454 C.2       1 <0>         0.9223
     21 C21       0.4589  -27.9554  -25.5629 C.2       1 <0>         0.9099
     22 C22      10.7884  -25.6750  -21.4954 C.3       1 <0>         0.1580
     23 C23       2.7141  -26.2712  -23.8381 C.3       1 <0>         0.0840
     24 C24       9.8041  -26.3559  -23.7406 C.3       1 <0>         0.2627
     25 C25       2.7172  -27.7112  -23.3426 C.3       1 <0>         0.1084
     26 C26      10.0749  -24.4272  -25.2825 C.3       1 <0>         0.1226
     27 C27       8.4094  -25.1419  -22.0335 C.3       1 <0>         0.1820
     28 C28       0.3155  -27.5893  -24.0809 C.3       1 <0>        -0.2005
     29 C29       1.3021  -28.2230  -23.1197 C.3       1 <0>        -0.0585
     30 N1       10.6855  -25.3647  -24.3511 N.am      1 <0>        -0.4646
     31 N2        9.5528  -26.0902  -22.2707 N.4       1 <0>        -0.7132
     32 O1        6.3016  -23.3088  -23.9111 O.co2     1 <0>        -0.7572
     33 O2        0.1118  -27.0743  -26.3961 O.co2     1 <0>        -0.8450
     34 O3       12.8611  -24.6269  -24.7582 O.2       1 <0>        -0.6069
     35 O4        6.9785  -24.9920  -25.2549 O.co2     1 <0>        -0.8783
     36 O5        0.9283  -29.1116  -25.7681 O.co2     1 <0>        -0.8547
     37 O6        4.0503  -25.8404  -24.1137 O.3       1 <0>        -0.2918
     38 O7        3.4123  -27.7901  -22.0906 O.3       1 <0>        -0.3046
     39 H1        9.1631  -26.6680  -30.0853 H         1 <0>         0.1364
     40 H2       15.2996  -28.3555  -22.7609 H         1 <0>         0.1415
     41 H3       14.2308  -28.6826  -20.5498 H         1 <0>         0.1480
     42 H4        9.7649  -24.2662  -29.9310 H         1 <0>         0.1368
     43 H5        8.9826  -28.0362  -28.0237 H         1 <0>         0.1417
     44 H6       14.3053  -26.8127  -24.4060 H         1 <0>         0.1594
     45 H7       12.1686  -27.4641  -19.9709 H         1 <0>         0.1442
     46 H8       10.1857  -23.2308  -27.7246 H         1 <0>         0.1545
     47 H9        9.4003  -27.0102  -25.8124 H         1 <0>         0.1426
     48 H10       7.4511  -26.9498  -20.2797 H         1 <0>         0.0992
     49 H11       5.2686  -28.0952  -20.3148 H         1 <0>         0.1491
     50 H12      10.5607  -25.8365  -20.4364 H         1 <0>         0.0878
     51 H13      10.9078  -24.5951  -21.6240 H         1 <0>         0.0906
     52 H14       2.1424  -26.1821  -24.7675 H         1 <0>         0.0824
     53 H15       2.2740  -25.5859  -23.1019 H         1 <0>         0.0621
     54 H16       8.8315  -26.3587  -24.2546 H         1 <0>         0.1942
     55 H17      10.2459  -27.3598  -23.8199 H         1 <0>         0.1358
     56 H18       3.2309  -28.3663  -24.0582 H         1 <0>         0.0580
     57 H19      10.7433  -23.5647  -25.3793 H         1 <0>         0.0972
     58 H20       9.1434  -24.0677  -24.8329 H         1 <0>         0.0787
     59 H21       8.4853  -24.3604  -22.7971 H         1 <0>         0.1595
     60 H22       8.5854  -24.6741  -21.0589 H         1 <0>         0.0610
     61 H23      -0.6911  -27.9084  -23.7847 H         1 <0>         0.0231
     62 H24       0.3465  -26.4966  -23.9874 H         1 <0>         0.0355
     63 H25       1.3143  -29.3080  -23.2078 H         1 <0>         0.0652
     64 H26       1.0288  -27.9743  -22.0945 H         1 <0>         0.0668
     65 H27       9.2622  -26.9927  -21.8566 H         1 <0>         0.4233
@<TRIPOS>BOND
     1    1    4 ar
     2    1    5 ar
     3    2    3 ar
     4    2    6 ar
     5    3    7 ar
     6    4    8 ar
     7    5    9 ar
     8    6   12 ar
     9    7   14 ar
    10    8   15 ar
    11    9   15 ar
    12   10   11 ar
    13   10   16 ar
    14   11   17 ar
    15   12   14 ar
    16   12   19 1
    17   13   16 ar
    18   13   18 ar
    19   13   20 1
    20   14   22 1
    21   15   26 1
    22   16   27 1
    23   17   18 ar
    24   17   38 1
    25   18   37 1
    26   19   30 am
    27   19   34 2
    28   20   32 1
    29   20   35 2
    30   21   28 1
    31   21   33 1
    32   21   36 2
    33   22   31 1
    34   23   25 1
    35   23   37 1
    36   24   30 1
    37   24   31 1
    38   25   29 1
    39   25   38 1
    40   26   30 1
    41   27   31 1
    42   28   29 1
    43    1   39 1
    44    2   40 1
    45    3   41 1
    46    4   42 1
    47    5   43 1
    48    6   44 1
    49    7   45 1
    50    8   46 1
    51    9   47 1
    52   10   48 1
    53   11   49 1
    54   22   50 1
    55   22   51 1
    56   23   52 1
    57   23   53 1
    58   24   54 1
    59   24   55 1
    60   25   56 1
    61   26   57 1
    62   26   58 1
    63   27   59 1
    64   27   60 1
    65   28   61 1
    66   28   62 1
    67   29   63 1
    68   29   64 1
    69   31   65 1
