@<TRIPOS>MOLECULE
AVX38753_1_17
   71    74     0     0     0
SMALL
USER_CHARGES

@<TRIPOS>ATOM
      1 C1        0.6621  -26.5578   -1.1162 C.ar      1 <0>        -0.1091
      2 C2        6.0536  -19.7594   -2.4177 C.ar      1 <0>        -0.1063
      3 C3        0.6549  -25.5532   -0.1486 C.ar      1 <0>        -0.1325
      4 C4        1.8626  -26.9426   -1.7132 C.ar      1 <0>        -0.1182
      5 C5        5.0430  -18.8656   -2.7713 C.ar      1 <0>        -0.1139
      6 C6        5.7686  -20.8398   -1.5827 C.ar      1 <0>        -0.0911
      7 C7        1.8481  -24.9334    0.2223 C.ar      1 <0>        -0.1179
      8 C8        3.0559  -26.3229   -1.3422 C.ar      1 <0>        -0.0986
      9 C9        3.7473  -19.0521   -2.2901 C.ar      1 <0>        -0.1112
     10 C10      -0.2259  -20.3449    0.7516 C.ar      1 <0>        -0.1259
     11 C11      -0.6965  -20.8634    1.9579 C.ar      1 <0>        -0.1486
     12 C12       4.4730  -21.0264   -1.1013 C.ar      1 <0>        -0.0856
     13 C13      -1.9236  -21.5785   -0.4480 C.ar      1 <0>        -0.0798
     14 C14       3.0487  -25.3184   -0.3746 C.ar      1 <0>        -0.1038
     15 C15       3.4622  -20.1325   -1.4550 C.ar      1 <0>        -0.0940
     16 C16      -0.8350  -20.7065   -0.4501 C.ar      1 <0>        -0.1775
     17 C17      -1.8114  -21.7114    1.9603 C.ar      1 <0>         0.0959
     18 C18      -2.4034  -22.0865    0.7593 C.ar      1 <0>         0.0781
     19 C19       1.2339  -22.7603   -4.8252 C.2       1 <0>        -0.1791
     20 C20       0.5200  -22.3240   -3.7821 C.2       1 <0>        -0.2090
     21 C21       4.2031  -22.1623   -0.2303 C.2       1 <0>         0.6478
     22 C22      -2.5726  -21.9503   -1.7214 C.2       1 <0>         0.9226
     23 C23      -1.3728  -23.8668    5.5946 C.2       1 <0>         0.9111
     24 C24      -4.0993  -23.0972    1.9801 C.3       1 <0>         0.0863
     25 C25      -3.0381  -23.3778    3.0355 C.3       1 <0>         0.0984
     26 C26       4.3330  -24.6511    0.0243 C.3       1 <0>         0.1243
     27 C27       2.0603  -20.3086   -0.9513 C.3       1 <0>         0.1575
     28 C28      -0.3016  -20.1392   -1.7251 C.3       1 <0>         0.1862
     29 C29       1.0944  -22.0683   -2.4281 C.3       1 <0>         0.1429
     30 C30      -2.7496  -24.4653    5.2855 C.3       1 <0>        -0.1994
     31 C31      -3.6667  -23.6509    4.3937 C.3       1 <0>        -0.0537
     32 N1        4.5577  -23.4270   -0.7107 N.am      1 <0>        -0.5173
     33 N2        1.0720  -20.6098   -2.0486 N.4       1 <0>        -0.7139
     34 O1       -3.4666  -21.1655   -2.2073 O.co2     1 <0>        -0.7335
     35 O2       -1.3604  -22.8098    6.2823 O.co2     1 <0>        -0.8486
     36 O3        3.6625  -21.9923    0.8754 O.2       1 <0>        -0.6533
     37 O4       -2.2188  -23.0443   -2.2946 O.co2     1 <0>        -0.8962
     38 O5       -0.4030  -24.5277    5.1237 O.co2     1 <0>        -0.8509
     39 O6       -3.4876  -22.9212    0.6988 O.3       1 <0>        -0.2979
     40 O7       -2.1794  -22.2376    3.1728 O.3       1 <0>        -0.2996
     41 H1       -0.2670  -27.0401   -1.4053 H         1 <0>         0.1377
     42 H2        7.0627  -19.6141   -2.7919 H         1 <0>         0.1397
     43 H3       -0.2800  -25.2535    0.3158 H         1 <0>         0.1262
     44 H4        1.8682  -27.7242   -2.4672 H         1 <0>         0.1329
     45 H5        5.2655  -18.0239   -3.4206 H         1 <0>         0.1372
     46 H6        6.5647  -21.5292   -1.3135 H         1 <0>         0.1492
     47 H7        1.8328  -24.1511    0.9766 H         1 <0>         0.1123
     48 H8        3.9864  -26.6290   -1.8128 H         1 <0>         0.1277
     49 H9        2.9674  -18.3497   -2.5714 H         1 <0>         0.1311
     50 H10       0.6200  -19.6630    0.7581 H         1 <0>         0.1134
     51 H11      -0.2110  -20.5836    2.8885 H         1 <0>         0.1530
     52 H12       0.7591  -22.9229   -5.7864 H         1 <0>         0.1233
     53 H13       2.2959  -22.9608   -4.7416 H         1 <0>         0.1222
     54 H14      -0.5406  -22.1331   -3.9206 H         1 <0>         0.1390
     55 H15      -4.7966  -23.9372    1.8981 H         1 <0>         0.0847
     56 H16      -4.6801  -22.1957    2.2134 H         1 <0>         0.0611
     57 H17      -2.4189  -24.2361    2.7439 H         1 <0>         0.0557
     58 H18       4.3257  -24.4065    1.0921 H         1 <0>         0.0699
     59 H19       5.1896  -25.3100   -0.1525 H         1 <0>         0.0462
     60 H20       1.9976  -21.1357   -0.2360 H         1 <0>         0.1151
     61 H21       1.7046  -19.4038   -0.4474 H         1 <0>         0.0742
     62 H22      -0.9322  -20.4112   -2.5809 H         1 <0>         0.1157
     63 H23      -0.2532  -19.0434   -1.6879 H         1 <0>         0.0593
     64 H24       2.1434  -22.3781   -2.3984 H         1 <0>         0.1229
     65 H25       0.5523  -22.5979   -1.6385 H         1 <0>         0.0896
     66 H26      -3.2514  -24.5914    6.2529 H         1 <0>         0.0211
     67 H27      -2.6074  -25.4682    4.8648 H         1 <0>         0.0371
     68 H28      -3.9288  -22.6961    4.8455 H         1 <0>         0.0667
     69 H29      -4.5900  -24.2008    4.2150 H         1 <0>         0.0592
     70 H30       4.9384  -23.5145   -1.6472 H         1 <0>         0.3650
     71 H31       1.3951  -20.0878   -2.8794 H         1 <0>         0.5265
@<TRIPOS>BOND
     1    1    3 ar
     2    1    4 ar
     3    2    5 ar
     4    2    6 ar
     5    3    7 ar
     6    4    8 ar
     7    5    9 ar
     8    6   12 ar
     9    7   14 ar
    10    8   14 ar
    11    9   15 ar
    12   10   11 ar
    13   10   16 ar
    14   11   17 ar
    15   12   15 ar
    16   12   21 1
    17   13   16 ar
    18   13   18 ar
    19   13   22 1
    20   14   26 1
    21   15   27 1
    22   16   28 1
    23   17   18 ar
    24   17   40 1
    25   18   39 1
    26   19   20 2
    27   20   29 1
    28   21   32 am
    29   21   36 2
    30   22   34 1
    31   22   37 2
    32   23   30 1
    33   23   35 1
    34   23   38 2
    35   24   25 1
    36   24   39 1
    37   25   31 1
    38   25   40 1
    39   26   32 1
    40   27   33 1
    41   28   33 1
    42   29   33 1
    43   30   31 1
    44    1   41 1
    45    2   42 1
    46    3   43 1
    47    4   44 1
    48    5   45 1
    49    6   46 1
    50    7   47 1
    51    8   48 1
    52    9   49 1
    53   10   50 1
    54   11   51 1
    55   19   52 1
    56   19   53 1
    57   20   54 1
    58   24   55 1
    59   24   56 1
    60   25   57 1
    61   26   58 1
    62   26   59 1
    63   27   60 1
    64   27   61 1
    65   28   62 1
    66   28   63 1
    67   29   64 1
    68   29   65 1
    69   30   66 1
    70   30   67 1
    71   31   68 1
    72   31   69 1
    73   32   70 1
    74   33   71 1
