@<TRIPOS>MOLECULE
AVX38672_0_14
   58    60     0     0     0
SMALL
USER_CHARGES

@<TRIPOS>ATOM
      1 C1        4.5697  -30.2171  -20.6205 C.ar      1 <0>        -0.1300
      2 C2        5.5845  -29.5653  -19.9076 C.ar      1 <0>        -0.1347
      3 C3        3.8942  -29.5489  -21.6419 C.ar      1 <0>        -0.1300
      4 C4        5.9231  -28.2453  -20.2169 C.ar      1 <0>        -0.1194
      5 C5        4.2327  -28.2290  -21.9512 C.ar      1 <0>        -0.0946
      6 C6       11.2051  -26.0638  -21.3584 C.ar      1 <0>        -0.1338
      7 C7       12.2121  -26.9109  -20.8903 C.ar      1 <0>        -0.1507
      8 C8       12.2506  -25.9667  -23.5586 C.ar      1 <0>        -0.0636
      9 C9        5.2472  -27.5771  -21.2387 C.ar      1 <0>        -0.1025
     10 C10      11.2242  -25.5945  -22.6850 C.ar      1 <0>        -0.1102
     11 C11      13.2140  -27.2635  -21.7729 C.ar      1 <0>         0.0384
     12 C12      13.2328  -26.8042  -23.0714 C.ar      1 <0>         0.0594
     13 C13      12.2923  -25.4885  -24.9514 C.2       1 <0>         0.9214
     14 C14       4.4346  -25.3882  -22.1703 C.2       1 <0>         0.6593
     15 C15       7.8789  -25.3620  -22.2343 C.2       1 <0>         0.7661
     16 C16      14.9577  -28.0744  -22.7681 C.3       1 <0>         0.3189
     17 C17       1.7558  -23.6473  -20.1750 C.3       1 <0>        -0.1071
     18 C18       2.7208  -22.9495  -22.3827 C.3       1 <0>        -0.1095
     19 C19       1.3995  -25.0807  -22.2131 C.3       1 <0>        -0.1084
     20 C20       8.6312  -26.1344  -24.5030 C.3       1 <0>         0.0459
     21 C21      10.1194  -24.6858  -23.1405 C.3       1 <0>         0.1298
     22 C22       5.6139  -26.1472  -21.5736 C.3       1 <0>         0.1124
     23 C23       2.3829  -24.1455  -21.4864 C.3       1 <0>         0.1299
     24 N1        3.5972  -24.8703  -21.1885 N.am      1 <0>        -0.5681
     25 N2        6.7137  -26.0799  -22.5094 N.am      1 <0>        -0.5840
     26 N3        8.8434  -25.3936  -23.2588 N.am      1 <0>        -0.4364
     27 O1       11.5931  -26.1088  -25.8461 O.co2     1 <0>        -0.8004
     28 O2       13.0267  -24.4656  -25.2295 O.co2     1 <0>        -0.8278
     29 O3        4.2468  -25.2939  -23.3846 O.2       1 <0>        -0.6183
     30 O4        8.0388  -24.7408  -21.1729 O.2       1 <0>        -0.6679
     31 O5       14.2871  -28.0401  -21.4675 O.3       1 <0>        -0.3581
     32 O6       14.3039  -27.2704  -23.7714 O.3       1 <0>        -0.3145
     33 H1        4.3058  -31.2447  -20.3800 H         1 <0>         0.1228
     34 H2        6.1103  -30.0854  -19.1119 H         1 <0>         0.1265
     35 H3        3.1037  -30.0561  -22.1960 H         1 <0>         0.1317
     36 H4        6.7144  -27.7451  -19.6559 H         1 <0>         0.1215
     37 H5        3.7006  -27.7162  -22.7487 H         1 <0>         0.1451
     38 H6       10.4029  -25.7693  -20.6843 H         1 <0>         0.1270
     39 H7       12.2011  -27.2752  -19.8682 H         1 <0>         0.1308
     40 H8       15.9734  -27.6881  -22.6130 H         1 <0>         0.0494
     41 H9       15.0218  -29.1088  -23.1370 H         1 <0>         0.0517
     42 H10       1.5046  -24.4861  -19.5151 H         1 <0>         0.0359
     43 H11       2.4379  -22.9794  -19.6279 H         1 <0>         0.0389
     44 H12       0.8275  -23.0966  -20.3664 H         1 <0>         0.0443
     45 H13       3.1714  -23.2812  -23.3284 H         1 <0>         0.0714
     46 H14       3.4409  -22.2766  -21.8925 H         1 <0>         0.0387
     47 H15       1.8255  -22.3657  -22.6232 H         1 <0>         0.0307
     48 H16       1.8232  -25.4525  -23.1564 H         1 <0>         0.0726
     49 H17       1.1436  -25.9490  -21.5957 H         1 <0>         0.0334
     50 H18       0.4683  -24.5585  -22.4615 H         1 <0>         0.0312
     51 H19       8.1543  -25.4902  -25.2461 H         1 <0>         0.0191
     52 H20       7.9875  -27.0033  -24.3265 H         1 <0>         0.0178
     53 H21       9.5869  -26.4848  -24.9028 H         1 <0>         0.1293
     54 H22       9.9863  -23.8546  -22.4321 H         1 <0>         0.1057
     55 H23      10.3485  -24.2481  -24.1179 H         1 <0>         0.0789
     56 H24       5.9630  -25.6138  -20.6749 H         1 <0>         0.0983
     57 H25       3.8351  -25.0003  -20.2073 H         1 <0>         0.3107
     58 H26       6.6339  -26.5722  -23.3961 H         1 <0>         0.3251
@<TRIPOS>BOND
     1    1    2 ar
     2    1    3 ar
     3    2    4 ar
     4    3    5 ar
     5    4    9 ar
     6    5    9 ar
     7    6    7 ar
     8    6   10 ar
     9    7   11 ar
    10    8   10 ar
    11    8   12 ar
    12    8   13 1
    13    9   22 1
    14   10   21 1
    15   11   12 ar
    16   11   31 1
    17   12   32 1
    18   13   27 1
    19   13   28 2
    20   14   22 1
    21   14   24 am
    22   14   29 2
    23   15   25 am
    24   15   26 am
    25   15   30 2
    26   16   31 1
    27   16   32 1
    28   17   23 1
    29   18   23 1
    30   19   23 1
    31   20   26 1
    32   21   26 1
    33   22   25 1
    34   23   24 1
    35    1   33 1
    36    2   34 1
    37    3   35 1
    38    4   36 1
    39    5   37 1
    40    6   38 1
    41    7   39 1
    42   16   40 1
    43   16   41 1
    44   17   42 1
    45   17   43 1
    46   17   44 1
    47   18   45 1
    48   18   46 1
    49   18   47 1
    50   19   48 1
    51   19   49 1
    52   19   50 1
    53   20   51 1
    54   20   52 1
    55   20   53 1
    56   21   54 1
    57   21   55 1
    58   22   56 1
    59   24   57 1
    60   25   58 1
