@<TRIPOS>MOLECULE
AVX38783_1_12
   68    71     0     0     0
SMALL
USER_CHARGES

@<TRIPOS>ATOM
      1 C1        7.5154  -30.5429  -21.5869 C.ar      1 <0>        -0.1171
      2 C2        6.3697  -30.1752  -20.8757 C.ar      1 <0>        -0.1122
      3 C3       12.4410  -27.3410  -26.4439 C.2       1 <0>        -0.1962
      4 C4        8.2625  -29.5741  -22.2589 C.ar      1 <0>        -0.0959
      5 C5        5.9712  -28.8386  -20.8365 C.ar      1 <0>        -0.1349
      6 C6        6.0260  -25.0285  -25.1967 C.ar      1 <0>        -0.1511
      7 C7        6.9453  -24.7908  -26.2221 C.ar      1 <0>        -0.1491
      8 C8       12.6555  -26.9329  -25.1034 C.2       1 <0>        -0.1810
      9 C9       11.0788  -27.3203  -26.6337 C.2       1 <0>         0.2247
     10 C10       7.8639  -28.2374  -22.2196 C.ar      1 <0>        -0.1074
     11 C11       7.2656  -23.5588  -23.7300 C.ar      1 <0>        -0.0528
     12 C12       6.7183  -27.8697  -21.5085 C.ar      1 <0>        -0.1021
     13 C13       6.1890  -24.4177  -23.9509 C.ar      1 <0>        -0.2005
     14 C14       8.0299  -23.9429  -25.9974 C.ar      1 <0>         0.0965
     15 C15       8.1777  -23.3099  -24.7591 C.ar      1 <0>         0.0697
     16 C16      11.4090  -26.6915  -24.5699 C.2       1 <0>         0.1552
     17 C17       2.4513  -28.1933  -23.2159 C.2       1 <0>        -0.1477
     18 C18       2.8876  -26.9437  -23.0245 C.2       1 <0>        -0.2293
     19 C19       8.6617  -27.2463  -22.9310 C.2       1 <0>         0.6504
     20 C20       7.4287  -22.9056  -22.4128 C.2       1 <0>         0.9162
     21 C21      13.2034  -23.7997  -27.2165 C.2       1 <0>         0.9099
     22 C22       9.8550  -21.9958  -25.6836 C.3       1 <0>         0.0868
     23 C23      10.1440  -23.1783  -26.6023 C.3       1 <0>         0.0979
     24 C24       6.2661  -26.4398  -21.4501 C.3       1 <0>         0.1410
     25 C25       5.1906  -24.6995  -22.8719 C.3       1 <0>         0.1917
     26 C26      10.9386  -26.2380  -23.2143 C.3       1 <0>         0.0598
     27 C27       3.8218  -26.5460  -21.9298 C.3       1 <0>         0.1319
     28 C28      12.3881  -22.5461  -27.5545 C.3       1 <0>        -0.1952
     29 C29      10.9129  -22.7445  -27.8447 C.3       1 <0>        -0.0557
     30 N1       10.0225  -27.1819  -22.6132 N.am      1 <0>        -0.5524
     31 N2        5.1768  -26.1239  -22.4429 N.4       1 <0>        -0.6775
     32 O1        6.8004  -21.8057  -22.1886 O.co2     1 <0>        -0.7947
     33 O2       14.1655  -23.6456  -26.4156 O.co2     1 <0>        -0.8488
     34 O3        8.1312  -26.4900  -23.7619 O.2       1 <0>        -0.5395
     35 O4        8.1925  -23.4616  -21.5419 O.co2     1 <0>        -0.8368
     36 O5       12.7934  -24.8535  -27.7836 O.co2     1 <0>        -0.8535
     37 O6       10.4425  -26.9253  -25.4962 O.3       1 <0>        -0.4194
     38 O7        9.2017  -22.4414  -24.4884 O.3       1 <0>        -0.2900
     39 O8        8.9095  -23.7652  -27.0359 O.3       1 <0>        -0.3020
     40 H1        7.8255  -31.5839  -21.6181 H         1 <0>         0.1424
     41 H2        5.7877  -30.9300  -20.3535 H         1 <0>         0.1449
     42 H3       13.1860  -27.6159  -27.1796 H         1 <0>         0.1897
     43 H4        9.1529  -29.8731  -22.8103 H         1 <0>         0.1528
     44 H5        5.0768  -28.5629  -20.2798 H         1 <0>         0.1366
     45 H6        5.1876  -25.6957  -25.3774 H         1 <0>         0.0947
     46 H7        6.8159  -25.2774  -27.1866 H         1 <0>         0.1495
     47 H8       13.6020  -26.8283  -24.5928 H         1 <0>         0.1721
     48 H9       10.4386  -27.5467  -27.4742 H         1 <0>         0.0436
     49 H10       1.7759  -28.4204  -24.0334 H         1 <0>         0.1306
     50 H11       2.7574  -29.0065  -22.5676 H         1 <0>         0.1330
     51 H12       2.5545  -26.1660  -23.7063 H         1 <0>         0.1350
     52 H13      10.7853  -21.5022  -25.3837 H         1 <0>         0.0854
     53 H14       9.2150  -21.2473  -26.1687 H         1 <0>         0.0586
     54 H15      10.7188  -23.9491  -26.0724 H         1 <0>         0.0606
     55 H16       5.8699  -26.1881  -20.4579 H         1 <0>         0.1557
     56 H17       7.0948  -25.7553  -21.6639 H         1 <0>         0.1479
     57 H18       5.3915  -24.1058  -21.9697 H         1 <0>         0.1467
     58 H19       4.1692  -24.4637  -23.1977 H         1 <0>         0.0748
     59 H20      11.7871  -26.1123  -22.5330 H         1 <0>         0.0984
     60 H21      10.4275  -25.2716  -23.2783 H         1 <0>         0.0580
     61 H22       3.9968  -27.3909  -21.2572 H         1 <0>         0.0844
     62 H23       3.4399  -25.7046  -21.3398 H         1 <0>         0.1175
     63 H24      12.8508  -22.1159  -28.4535 H         1 <0>         0.0214
     64 H25      12.5168  -21.8164  -26.7437 H         1 <0>         0.0349
     65 H26      10.7508  -23.4875  -28.6252 H         1 <0>         0.0629
     66 H27      10.4737  -21.8056  -28.1801 H         1 <0>         0.0634
     67 H28      10.3907  -27.7808  -21.8811 H         1 <0>         0.2937
     68 H29       5.3693  -26.7054  -23.2771 H         1 <0>         0.4219
@<TRIPOS>BOND
     1    1    2 ar
     2    1    4 ar
     3    2    5 ar
     4    3    8 1
     5    3    9 2
     6    4   10 ar
     7    5   12 ar
     8    6    7 ar
     9    6   13 ar
    10    7   14 ar
    11    8   16 2
    12    9   37 1
    13   10   12 ar
    14   10   19 1
    15   11   13 ar
    16   11   15 ar
    17   11   20 1
    18   12   24 1
    19   13   25 1
    20   14   15 ar
    21   14   39 1
    22   15   38 1
    23   16   26 1
    24   16   37 1
    25   17   18 2
    26   18   27 1
    27   19   30 am
    28   19   34 2
    29   20   32 1
    30   20   35 2
    31   21   28 1
    32   21   33 1
    33   21   36 2
    34   22   23 1
    35   22   38 1
    36   23   29 1
    37   23   39 1
    38   24   31 1
    39   25   31 1
    40   26   30 1
    41   27   31 1
    42   28   29 1
    43    1   40 1
    44    2   41 1
    45    3   42 1
    46    4   43 1
    47    5   44 1
    48    6   45 1
    49    7   46 1
    50    8   47 1
    51    9   48 1
    52   17   49 1
    53   17   50 1
    54   18   51 1
    55   22   52 1
    56   22   53 1
    57   23   54 1
    58   24   55 1
    59   24   56 1
    60   25   57 1
    61   25   58 1
    62   26   59 1
    63   26   60 1
    64   27   61 1
    65   27   62 1
    66   28   63 1
    67   28   64 1
    68   29   65 1
    69   29   66 1
    70   30   67 1
    71   31   68 1
