@<TRIPOS>MOLECULE
AVX38742_3_1
   47    50     0     0     0
SMALL
NO_CHARGES

@<TRIPOS>ATOM
      1 C1        9.6417  -27.6855  -22.4959 C.ar      1 MOL         -0.133000
      2 C2       10.7331  -26.8795  -22.8568 C.ar      1 MOL         -0.101200
      3 C3        8.4435  -27.1142  -22.0571 C.ar      1 MOL         -0.081600
      4 C4        6.3310  -27.4539  -20.2014 C.ar      1 MOL         -0.061300
      5 C5       10.6454  -25.4878  -22.7845 C.ar      1 MOL         -0.120000
      6 C6        5.9348  -28.7834  -20.0538 C.ar      1 MOL         -0.156800
      7 C7        8.3602  -25.7322  -21.9869 C.ar      1 MOL         -0.077800
      8 C8        5.6175  -26.6007  -21.0434 C.ar      1 MOL         0.021900
      9 C9        4.5122  -27.0774  -21.7477 C.ar      1 MOL         -0.115300
     10 C10       9.4557  -24.9221  -22.3487 C.ar      1 MOL         -0.069500
     11 C11       4.8237  -29.2591  -20.7506 C.ar      1 MOL         0.140500
     12 C12       4.1258  -28.4111  -21.6123 C.ar      1 MOL         0.098700
     13 C13       7.2623  -24.8600  -21.5734 C.2       1 MOL         -0.051600
     14 C14       7.7338  -23.4482  -21.6970 C.2       1 MOL         0.382300
     15 C15       6.0558  -25.2150  -21.1575 C.2       1 MOL         -0.127400
     16 C16       3.7393  -26.1745  -22.6284 C.2       1 MOL         0.919400
     17 C17       0.2241  -32.0934  -21.1342 C.2       1 MOL         0.903100
     18 C18       9.1668  -23.4503  -22.2023 C.3       1 MOL         -0.064000
     19 C19       2.9970  -30.2471  -22.4488 C.3       1 MOL         0.083100
     20 C20       3.1976  -30.9180  -21.0950 C.3       1 MOL         0.101700
     21 C21       0.7125  -30.6984  -20.7275 C.3       1 MOL         -0.106300
     22 C22       2.0862  -30.6113  -20.0912 C.3       1 MOL         -0.068500
     23 N1        7.1132  -22.3509  -21.4451 N.2       1 MOL         -0.407000
     24 O1        2.6673  -25.6379  -22.1658 O.co2     1 MOL         -0.595100
     25 O2       -0.9702  -32.1776  -21.5305 O.co2     1 MOL         -0.594800
     26 O3        4.1714  -25.9638  -23.8203 O.co2     1 MOL         -0.607400
     27 O4        1.1005  -32.9997  -21.0316 O.co2     1 MOL         -0.585300
     28 O5        3.0386  -28.8235  -22.3356 O.3       1 MOL         -0.244900
     29 O6        4.4697  -30.5647  -20.5359 O.3       1 MOL         -0.273000
     30 O7        5.8240  -22.6601  -20.9999 O.3       1 MOL         -0.356800
     31 H1        9.7309  -28.7668  -22.5589 H         1 MOL         0.137600
     32 H2       11.6557  -27.3448  -23.1953 H         1 MOL         0.138600
     33 H3        7.6089  -27.7506  -21.7816 H         1 MOL         0.131000
     34 H4        7.2022  -27.1002  -19.6548 H         1 MOL         0.175200
     35 H5       11.4917  -24.8687  -23.0639 H         1 MOL         0.142400
     36 H6        6.5026  -29.4439  -19.4035 H         1 MOL         0.179700
     37 H7        5.3339  -24.4554  -20.9109 H         1 MOL         0.187700
     38 H8        9.8232  -22.9855  -21.4617 H         1 MOL         0.091200
     39 H9        9.2241  -22.9340  -23.1650 H         1 MOL         0.081500
     40 H10       3.7927  -30.5430  -23.1495 H         1 MOL         0.119600
     41 H11       2.0347  -30.5299  -22.9068 H         1 MOL         0.083600
     42 H12       3.2226  -32.0401  -21.2455 H         1 MOL         0.095900
     43 H13      -0.0170  -30.3197  -19.9995 H         1 MOL         0.077100
     44 H14       0.6614  -30.0416  -21.6050 H         1 MOL         0.089300
     45 H15       2.1876  -31.2953  -19.2503 H         1 MOL         0.090300
     46 H16       2.2574  -29.6006  -19.7218 H         1 MOL         0.078500
     47 H17       5.4516  -21.7758  -20.8421 H         1 MOL         0.448500
@<TRIPOS>BOND
     1    1    2 ar
     2    1    3 ar
     3    2    5 ar
     4    3    7 ar
     5    4    6 ar
     6    4    8 ar
     7    5   10 ar
     8    6   11 ar
     9    7   10 ar
    10    7   13 1
    11    8    9 ar
    12    8   15 1
    13    9   12 ar
    14    9   16 1
    15   10   18 1
    16   11   12 ar
    17   11   29 1
    18   12   28 1
    19   13   14 1
    20   13   15 2
    21   14   18 1
    22   14   23 2
    23   16   24 1
    24   16   26 2
    25   17   21 1
    26   17   25 1
    27   17   27 2
    28   19   20 1
    29   19   28 1
    30   20   22 1
    31   20   29 1
    32   21   22 1
    33   23   30 1
    34    1   31 1
    35    2   32 1
    36    3   33 1
    37    4   34 1
    38    5   35 1
    39    6   36 1
    40   15   37 1
    41   18   38 1
    42   18   39 1
    43   19   40 1
    44   19   41 1
    45   20   42 1
    46   21   43 1
    47   21   44 1
    48   22   45 1
    49   22   46 1
    50   30   47 1
