@<TRIPOS>MOLECULE
AVX38743_5_1
   47    50     0     0     0
SMALL
NO_CHARGES

@<TRIPOS>ATOM
      1 C1        9.9766  -41.7994   -0.7256 C.ar      1 MOL         -0.134900
      2 C2        8.6767  -41.4417   -0.3361 C.ar      1 MOL         -0.126500
      3 C3       10.4492  -43.1047   -0.5309 C.ar      1 MOL         -0.097800
      4 C4       11.6279  -45.1250   -2.0471 C.ar      1 MOL         -0.133600
      5 C5        7.8325  -42.3848    0.2533 C.ar      1 MOL         -0.123500
      6 C6       12.6430  -44.6345   -2.8683 C.ar      1 MOL         -0.105800
      7 C7        9.6057  -44.0376    0.0587 C.ar      1 MOL         -0.042100
      8 C8       11.9433  -45.7132   -0.8197 C.ar      1 MOL         0.002900
      9 C9       13.2752  -45.8215   -0.4151 C.ar      1 MOL         -0.116000
     10 C10       8.3115  -43.6769    0.4510 C.ar      1 MOL         -0.075800
     11 C11      13.9738  -44.7285   -2.4562 C.ar      1 MOL         0.004300
     12 C12      14.2923  -45.3397   -1.2399 C.ar      1 MOL         0.076400
     13 C13       9.8277  -45.4466    0.3935 C.2       1 MOL         -0.026900
     14 C14      10.8517  -46.2000    0.0151 C.2       1 MOL         -0.080400
     15 C15      13.6161  -46.4349    0.8899 C.2       1 MOL         0.913400
     16 C16      19.4164  -46.0728   -2.9397 C.2       1 MOL         0.960400
     17 C17       7.5495  -44.8389    1.0214 C.3       1 MOL         -0.067600
     18 C18      16.1588  -43.9906   -2.6170 C.3       1 MOL         0.113400
     19 C19       8.6428  -45.9133    1.2063 C.3       1 MOL         0.168800
     20 C20      16.5727  -45.2049   -1.7862 C.3       1 MOL         0.106600
     21 C21      18.0285  -46.2313   -3.5713 C.3       1 MOL         0.221100
     22 C22      16.8649  -46.4508   -2.6240 C.3       1 MOL         -0.154100
     23 O1       14.8369  -46.3904    1.2895 O.co2     1 MOL         -0.797600
     24 O2       20.2755  -45.4481   -3.6213 O.co2     1 MOL         -0.440000
     25 O3       12.6776  -46.9875    1.5705 O.co2     1 MOL         -0.664500
     26 O4       19.5239  -46.5864   -1.7872 O.co2     1 MOL         -0.466000
     27 O5       14.9255  -44.2214   -3.3007 O.3       1 MOL         -0.306800
     28 O6       15.5792  -45.5066   -0.7975 O.3       1 MOL         -0.317000
     29 O7        9.0303  -45.9732    2.5776 O.3       1 MOL         -0.594900
     30 H1       10.6217  -41.0536   -1.1840 H         1 MOL         0.125200
     31 H2        8.3236  -40.4234   -0.4989 H         1 MOL         0.126200
     32 H3       11.4583  -43.3654   -0.8353 H         1 MOL         0.138200
     33 H4       10.5953  -45.0451   -2.3819 H         1 MOL         0.150000
     34 H5        6.8232  -42.1093    0.5448 H         1 MOL         0.130300
     35 H6       12.3906  -44.1924   -3.8298 H         1 MOL         0.147700
     36 H7       10.8871  -47.2388    0.3055 H         1 MOL         0.148700
     37 H8        7.0588  -44.5697    1.9617 H         1 MOL         0.067400
     38 H9        6.8042  -45.1671    0.2881 H         1 MOL         0.054000
     39 H10      16.0147  -43.1084   -1.9737 H         1 MOL         0.086800
     40 H11      16.9259  -43.7284   -3.3645 H         1 MOL         0.061300
     41 H12       8.2887  -46.9059    0.9046 H         1 MOL         0.061100
     42 H13      17.5170  -44.9519   -1.2148 H         1 MOL         0.085300
     43 H14      18.0928  -47.1093   -4.2289 H         1 MOL         0.140000
     44 H15      17.8338  -45.3588   -4.2123 H         1 MOL         0.183900
     45 H16      17.0456  -47.2873   -1.9464 H         1 MOL         0.105000
     46 H17      15.9626  -46.6708   -3.1940 H         1 MOL         0.096500
     47 H18       8.2520  -46.2745    3.0712 H         1 MOL         0.396800
@<TRIPOS>BOND
     1    1    2 ar
     2    1    3 ar
     3    2    5 ar
     4    3    7 ar
     5    4    6 ar
     6    4    8 ar
     7    5   10 ar
     8    6   11 ar
     9    7   10 ar
    10    7   13 1
    11    8    9 ar
    12    8   14 1
    13    9   12 ar
    14    9   15 1
    15   10   17 1
    16   11   12 ar
    17   11   27 1
    18   12   28 1
    19   13   14 2
    20   13   19 1
    21   15   23 1
    22   15   25 2
    23   16   21 1
    24   16   24 1
    25   16   26 2
    26   17   19 1
    27   18   20 1
    28   18   27 1
    29   19   29 1
    30   20   22 1
    31   20   28 1
    32   21   22 1
    33    1   30 1
    34    2   31 1
    35    3   32 1
    36    4   33 1
    37    5   34 1
    38    6   35 1
    39   14   36 1
    40   17   37 1
    41   17   38 1
    42   18   39 1
    43   18   40 1
    44   19   41 1
    45   20   42 1
    46   21   43 1
    47   21   44 1
    48   22   45 1
    49   22   46 1
    50   29   47 1
