@<TRIPOS>MOLECULE
AVX38785_1_34
   67    70     0     0     0
SMALL
USER_CHARGES

@<TRIPOS>ATOM
      1 C1        7.0613  -30.5053  -21.1275 C.ar      1 <0>        -0.1093
      2 C2        3.9283  -21.8515  -20.4931 C.ar      1 <0>        -0.1051
      3 C3        7.9628  -30.0233  -22.0801 C.ar      1 <0>        -0.1324
      4 C4        6.3902  -29.6111  -20.2923 C.ar      1 <0>        -0.1185
      5 C5        2.6567  -22.4302  -20.4904 C.ar      1 <0>        -0.1135
      6 C6        5.0167  -22.5671  -20.9924 C.ar      1 <0>        -0.0910
      7 C7        8.1935  -28.6468  -22.1976 C.ar      1 <0>        -0.1172
      8 C8        6.6210  -28.2346  -20.4098 C.ar      1 <0>        -0.0981
      9 C9        2.4734  -23.7247  -20.9868 C.ar      1 <0>        -0.1106
     10 C10      -0.0367  -27.6445  -23.4101 C.ar      1 <0>        -0.1255
     11 C11      -1.0827  -28.3676  -22.8280 C.ar      1 <0>        -0.1489
     12 C12       4.8334  -23.8617  -21.4890 C.ar      1 <0>        -0.0865
     13 C13       1.5641  -29.1588  -22.4113 C.ar      1 <0>        -0.0780
     14 C14       7.5226  -27.7524  -21.3625 C.ar      1 <0>        -0.1041
     15 C15       3.5617  -24.4405  -21.4861 C.ar      1 <0>        -0.0962
     16 C16       1.2850  -28.0361  -23.1974 C.ar      1 <0>        -0.1801
     17 C17      -0.8035  -29.4819  -22.0303 C.ar      1 <0>         0.0976
     18 C18       0.5181  -29.8904  -21.8402 C.ar      1 <0>         0.0769
     19 C19       5.9871  -24.5869  -22.0036 C.2       1 <0>         0.6485
     20 C20       2.9644  -29.5765  -22.1975 C.2       1 <0>         0.9227
     21 C21      -4.3578  -30.0421  -20.6783 C.2       1 <0>         0.9110
     22 C22      -0.2727  -31.8506  -20.8585 C.3       1 <0>         0.0868
     23 C23      -1.4713  -31.0243  -20.4119 C.3       1 <0>         0.0975
     24 C24       3.0170  -24.8589  -24.2882 C.3       1 <0>         0.0942
     25 C25       7.7711  -26.2709  -21.4888 C.3       1 <0>         0.1249
     26 C26       3.3359  -25.8311  -22.0134 C.3       1 <0>         0.1566
     27 C27       2.3820  -27.2351  -23.8293 C.3       1 <0>         0.1886
     28 C28      -3.8774  -31.1027  -19.6775 C.3       1 <0>        -0.1995
     29 C29      -2.6609  -31.9172  -20.0724 C.3       1 <0>        -0.0531
     30 N1        6.6045  -25.4948  -21.1342 N.am      1 <0>        -0.5184
     31 N2        2.5084  -25.8567  -23.2729 N.4       1 <0>        -0.7172
     32 O1        3.4894  -30.4105  -23.0233 O.co2     1 <0>        -0.7301
     33 O2       -4.6129  -30.4482  -21.8449 O.co2     1 <0>        -0.8481
     34 O3        6.3980  -24.3761  -23.1581 O.2       1 <0>        -0.6511
     35 O4        3.6039  -29.0905  -21.1938 O.co2     1 <0>        -0.8972
     36 O5       -4.4524  -28.8731  -20.1962 O.co2     1 <0>        -0.8514
     37 O6        0.8542  -30.9946  -21.0961 O.3       1 <0>        -0.2984
     38 O7       -1.8711  -30.1385  -21.4697 O.3       1 <0>        -0.2990
     39 H1        6.8818  -31.5769  -21.0356 H         1 <0>         0.1375
     40 H2        4.0714  -20.8436  -20.1060 H         1 <0>         0.1401
     41 H3        8.4853  -30.7197  -22.7300 H         1 <0>         0.1260
     42 H4        5.6890  -29.9864  -19.5500 H         1 <0>         0.1329
     43 H5        1.8097  -21.8731  -20.1005 H         1 <0>         0.1378
     44 H6        6.0030  -22.1056  -20.9885 H         1 <0>         0.1499
     45 H7        8.8983  -28.2802  -22.9422 H         1 <0>         0.1127
     46 H8        6.0940  -27.5452  -19.7547 H         1 <0>         0.1275
     47 H9        1.4785  -24.1665  -20.9798 H         1 <0>         0.1311
     48 H10      -0.2621  -26.7734  -24.0245 H         1 <0>         0.1149
     49 H11      -2.1087  -28.0506  -22.9914 H         1 <0>         0.1534
     50 H12       0.0150  -32.5704  -20.0822 H         1 <0>         0.0847
     51 H13      -0.4824  -32.4134  -21.7778 H         1 <0>         0.0610
     52 H14      -1.2154  -30.4101  -19.5376 H         1 <0>         0.0561
     53 H15       4.0186  -25.1709  -24.5890 H         1 <0>         0.0594
     54 H16       2.3312  -24.8688  -25.1371 H         1 <0>         0.1128
     55 H17       3.0395  -23.8731  -23.8132 H         1 <0>         0.0840
     56 H18       8.5944  -25.9583  -20.8360 H         1 <0>         0.0700
     57 H19       8.0517  -26.0027  -22.5139 H         1 <0>         0.0461
     58 H20       4.2853  -26.3226  -22.2510 H         1 <0>         0.1162
     59 H21       2.8108  -26.4575  -21.2793 H         1 <0>         0.0709
     60 H22       3.3586  -27.7161  -23.6911 H         1 <0>         0.1151
     61 H23       2.2232  -27.1177  -24.9088 H         1 <0>         0.0570
     62 H24      -4.7156  -31.8029  -19.5424 H         1 <0>         0.0212
     63 H25      -3.7067  -30.6137  -18.7102 H         1 <0>         0.0371
     64 H26      -2.8625  -32.5593  -20.9285 H         1 <0>         0.0665
     65 H27      -2.3596  -32.5575  -19.2414 H         1 <0>         0.0590
     66 H28       6.2658  -25.5809  -20.1810 H         1 <0>         0.3650
     67 H29       1.5624  -25.5388  -23.0059 H         1 <0>         0.5271
@<TRIPOS>BOND
     1    1    3 ar
     2    1    4 ar
     3    2    5 ar
     4    2    6 ar
     5    3    7 ar
     6    4    8 ar
     7    5    9 ar
     8    6   12 ar
     9    7   14 ar
    10    8   14 ar
    11    9   15 ar
    12   10   11 ar
    13   10   16 ar
    14   11   17 ar
    15   12   15 ar
    16   12   19 1
    17   13   16 ar
    18   13   18 ar
    19   13   20 1
    20   14   25 1
    21   15   26 1
    22   16   27 1
    23   17   18 ar
    24   17   38 1
    25   18   37 1
    26   19   30 am
    27   19   34 2
    28   20   32 1
    29   20   35 2
    30   21   28 1
    31   21   33 1
    32   21   36 2
    33   22   23 1
    34   22   37 1
    35   23   29 1
    36   23   38 1
    37   24   31 1
    38   25   30 1
    39   26   31 1
    40   27   31 1
    41   28   29 1
    42    1   39 1
    43    2   40 1
    44    3   41 1
    45    4   42 1
    46    5   43 1
    47    6   44 1
    48    7   45 1
    49    8   46 1
    50    9   47 1
    51   10   48 1
    52   11   49 1
    53   22   50 1
    54   22   51 1
    55   23   52 1
    56   24   53 1
    57   24   54 1
    58   24   55 1
    59   25   56 1
    60   25   57 1
    61   26   58 1
    62   26   59 1
    63   27   60 1
    64   27   61 1
    65   28   62 1
    66   28   63 1
    67   29   64 1
    68   29   65 1
    69   30   66 1
    70   31   67 1
