@<TRIPOS>MOLECULE
AVX38673_1_30
   58    60     0     0     0
SMALL
USER_CHARGES

@<TRIPOS>ATOM
      1 C1        0.2603  -28.5929  -25.0524 C.ar      1 <0>        -0.1296
      2 C2        1.5848  -29.0312  -25.0042 C.ar      1 <0>        -0.1305
      3 C3       -0.4651  -28.4227  -23.8695 C.ar      1 <0>        -0.1333
      4 C4        2.1848  -29.2982  -23.7735 C.ar      1 <0>        -0.0974
      5 C5        0.1351  -28.6895  -22.6387 C.ar      1 <0>        -0.1224
      6 C6        8.1122  -27.0750  -22.7903 C.ar      1 <0>        -0.1342
      7 C7        9.0456  -27.2265  -23.8219 C.ar      1 <0>        -0.1513
      8 C8        6.5987  -25.8739  -24.2726 C.ar      1 <0>        -0.0640
      9 C9        1.4599  -29.1273  -22.5907 C.ar      1 <0>        -0.1008
     10 C10       6.8958  -26.4025  -23.0143 C.ar      1 <0>        -0.1134
     11 C11       8.7278  -26.6953  -25.0548 C.ar      1 <0>         0.0398
     12 C12       7.5372  -26.0372  -25.2741 C.ar      1 <0>         0.0584
     13 C13       5.3322  -25.1662  -24.5315 C.2       1 <0>         0.9217
     14 C14       2.0349  -30.8985  -20.9020 C.2       1 <0>         0.6471
     15 C15       3.9227  -27.7495  -21.5912 C.2       1 <0>         0.7724
     16 C16       8.6750  -26.0451  -27.1180 C.3       1 <0>         0.3189
     17 C17      -2.7942  -32.6559  -19.3701 C.3       1 <0>        -0.0920
     18 C18       6.2317  -28.5999  -21.1051 C.3       1 <0>         0.0490
     19 C19       5.9257  -26.2655  -21.8734 C.3       1 <0>         0.1353
     20 C20      -1.8106  -32.5448  -20.5266 C.3       1 <0>        -0.0805
     21 C21      -0.4312  -33.0945  -20.1465 C.3       1 <0>        -0.1101
     22 C22       0.6029  -32.9099  -21.2547 C.3       1 <0>         0.0905
     23 C23       2.1099  -29.4166  -21.2575 C.3       1 <0>         0.1159
     24 N1        0.9307  -31.5176  -21.4708 N.am      1 <0>        -0.5593
     25 N2        3.5025  -29.0296  -21.2366 N.am      1 <0>        -0.5884
     26 N3        5.3135  -27.5462  -21.5251 N.am      1 <0>        -0.4435
     27 O1        4.2955  -25.8566  -24.8593 O.co2     1 <0>        -0.8017
     28 O2        5.3025  -23.8798  -24.4219 O.co2     1 <0>        -0.8228
     29 O3        2.8483  -31.4493  -20.1623 O.2       1 <0>        -0.6087
     30 O4        3.1276  -26.8704  -21.9444 O.2       1 <0>        -0.6707
     31 O5        9.5077  -26.7458  -26.1713 O.3       1 <0>        -0.3576
     32 O6        7.4227  -25.5931  -26.5553 O.3       1 <0>        -0.3139
     33 H1       -0.2063  -28.3849  -26.0108 H         1 <0>         0.1274
     34 H2        2.1488  -29.1645  -25.9252 H         1 <0>         0.1300
     35 H3       -1.4969  -28.0826  -23.9068 H         1 <0>         0.1243
     36 H4        3.2174  -29.6396  -23.7458 H         1 <0>         0.1432
     37 H5       -0.4373  -28.5539  -21.7222 H         1 <0>         0.1223
     38 H6        8.3365  -27.4835  -21.8081 H         1 <0>         0.1276
     39 H7        9.9845  -27.7443  -23.6535 H         1 <0>         0.1307
     40 H8        9.2248  -25.1731  -27.4909 H         1 <0>         0.0501
     41 H9        8.4642  -26.7173  -27.9608 H         1 <0>         0.0509
     42 H10      -2.4315  -32.1123  -18.4911 H         1 <0>         0.0287
     43 H11      -3.7645  -32.2304  -19.6521 H         1 <0>         0.0289
     44 H12      -2.9487  -33.7037  -19.0895 H         1 <0>         0.0377
     45 H13       6.5620  -29.1843  -21.9720 H         1 <0>         0.0090
     46 H14       5.7375  -29.2708  -20.3975 H         1 <0>         0.0288
     47 H15       7.1087  -28.1631  -20.6197 H         1 <0>         0.1289
     48 H16       6.4292  -25.8769  -20.9804 H         1 <0>         0.1025
     49 H17       5.1201  -25.5630  -22.1202 H         1 <0>         0.0784
     50 H18      -2.2031  -33.0984  -21.3883 H         1 <0>         0.0396
     51 H19      -1.7337  -31.4911  -20.8223 H         1 <0>         0.0331
     52 H20      -0.0846  -32.6041  -19.2276 H         1 <0>         0.0433
     53 H21      -0.5168  -34.1675  -19.9297 H         1 <0>         0.0607
     54 H22       0.2487  -33.3244  -22.2048 H         1 <0>         0.0767
     55 H23       1.5349  -33.4227  -20.9896 H         1 <0>         0.0386
     56 H24       1.6296  -28.8307  -20.4590 H         1 <0>         0.1048
     57 H25       0.3119  -30.9785  -22.0696 H         1 <0>         0.3046
     58 H26       4.1966  -29.7136  -20.9542 H         1 <0>         0.3259
@<TRIPOS>BOND
     1    1    2 ar
     2    1    3 ar
     3    2    4 ar
     4    3    5 ar
     5    4    9 ar
     6    5    9 ar
     7    6    7 ar
     8    6   10 ar
     9    7   11 ar
    10    8   10 ar
    11    8   12 ar
    12    8   13 1
    13    9   23 1
    14   10   19 1
    15   11   12 ar
    16   11   31 1
    17   12   32 1
    18   13   27 1
    19   13   28 2
    20   14   23 1
    21   14   24 am
    22   14   29 2
    23   15   25 am
    24   15   26 am
    25   15   30 2
    26   16   31 1
    27   16   32 1
    28   17   20 1
    29   18   26 1
    30   19   26 1
    31   20   21 1
    32   21   22 1
    33   22   24 1
    34   23   25 1
    35    1   33 1
    36    2   34 1
    37    3   35 1
    38    4   36 1
    39    5   37 1
    40    6   38 1
    41    7   39 1
    42   16   40 1
    43   16   41 1
    44   17   42 1
    45   17   43 1
    46   17   44 1
    47   18   45 1
    48   18   46 1
    49   18   47 1
    50   19   48 1
    51   19   49 1
    52   20   50 1
    53   20   51 1
    54   21   52 1
    55   21   53 1
    56   22   54 1
    57   22   55 1
    58   23   56 1
    59   24   57 1
    60   25   58 1
