@<TRIPOS>MOLECULE
AVX38787_1_43
   73    76     0     0     0
SMALL
USER_CHARGES

@<TRIPOS>ATOM
      1 C1        6.1436  -19.8003   -2.3414 C.ar      1 <0>        -0.1101
      2 C2        5.2177  -18.8716   -2.8164 C.ar      1 <0>        -0.1088
      3 C3        5.7222  -20.8490   -1.5212 C.ar      1 <0>        -0.1026
      4 C4        3.8703  -18.9915   -2.4713 C.ar      1 <0>        -0.1053
      5 C5       -0.3618  -20.4656    0.2335 C.ar      1 <0>        -0.1396
      6 C6       -0.8658  -21.1252    1.3556 C.ar      1 <0>        -0.1538
      7 C7        4.3748  -20.9690   -1.1761 C.ar      1 <0>        -0.1271
      8 C8       -1.9116  -21.6817   -1.1775 C.ar      1 <0>        -0.0597
      9 C9        3.4489  -20.0402   -1.6511 C.ar      1 <0>        -0.1000
     10 C10      -0.8802  -20.7476   -1.0319 C.ar      1 <0>        -0.1999
     11 C11      -1.8876  -22.0697    1.2089 C.ar      1 <0>         0.0983
     12 C12      -2.4253  -22.3314   -0.0541 C.ar      1 <0>         0.0673
     13 C13       3.9620  -22.0730   -0.3175 C.2       1 <0>         0.6476
     14 C14      -2.4652  -21.9694   -2.5177 C.2       1 <0>         0.9146
     15 C15      -1.7933  -23.6186    4.8549 C.2       1 <0>         0.9108
     16 C16       0.2453  -26.8685   -1.5160 C.3       1 <0>        -0.0779
     17 C17       0.6458  -25.6170   -2.2944 C.3       1 <0>        -0.0825
     18 C18       0.4280  -26.6718   -0.0131 C.3       1 <0>        -0.0774
     19 C19       2.0686  -25.1670   -1.9535 C.3       1 <0>        -0.0769
     20 C20       1.8504  -26.2233    0.3318 C.3       1 <0>        -0.0693
     21 C21      -4.1214  -23.5559    0.9616 C.3       1 <0>         0.0860
     22 C22       2.2539  -24.9593   -0.4430 C.3       1 <0>        -0.0922
     23 C23      -3.1042  -23.8734    2.0499 C.3       1 <0>         0.0980
     24 C24       1.2556  -21.7876   -3.0283 C.3       1 <0>         0.0570
     25 C25       1.9939  -20.1447   -1.2952 C.3       1 <0>         0.1414
     26 C26      -0.3129  -20.0290   -2.2138 C.3       1 <0>         0.1854
     27 C27      -2.7853  -24.7036    4.4030 C.3       1 <0>        -0.1977
     28 C28       3.6972  -24.5620   -0.1221 C.3       1 <0>         0.0835
     29 C29      -3.7893  -24.3121    3.3360 C.3       1 <0>        -0.0536
     30 N1        4.0856  -23.3673   -0.8408 N.am      1 <0>        -0.5534
     31 N2        1.1054  -20.3825   -2.4925 N.4       1 <0>        -0.6775
     32 O1       -3.4967  -21.3103   -2.9092 O.co2     1 <0>        -0.8426
     33 O2       -2.2769  -22.6354    5.4836 O.co2     1 <0>        -0.8482
     34 O3        3.5046  -21.8488    0.8161 O.2       1 <0>        -0.6046
     35 O4       -1.8941  -22.8677   -3.2407 O.co2     1 <0>        -0.7787
     36 O5       -0.5901  -23.8565    4.5461 O.co2     1 <0>        -0.8529
     37 O6       -3.4512  -23.2222   -0.2582 O.3       1 <0>        -0.2897
     38 O7       -2.3264  -22.6988    2.3449 O.3       1 <0>        -0.3048
     39 H1        7.1930  -19.7068   -2.6096 H         1 <0>         0.1468
     40 H2        5.5463  -18.0546   -3.4541 H         1 <0>         0.1489
     41 H3        6.4533  -21.5660   -1.1566 H         1 <0>         0.1508
     42 H4        3.1572  -18.2623   -2.8466 H         1 <0>         0.1492
     43 H5        0.4390  -19.7363    0.3553 H         1 <0>         0.1012
     44 H6       -0.4504  -20.9063    2.3365 H         1 <0>         0.1495
     45 H7       -0.8006  -27.1232   -1.7332 H         1 <0>         0.0543
     46 H8        0.8540  -27.7184   -1.8504 H         1 <0>         0.0416
     47 H9        0.5673  -25.8153   -3.3703 H         1 <0>         0.0688
     48 H10      -0.0548  -24.8041   -2.0666 H         1 <0>         0.0496
     49 H11      -0.2856  -25.9202    0.3470 H         1 <0>         0.0426
     50 H12       0.1972  -27.6088    0.5091 H         1 <0>         0.0403
     51 H13       2.7786  -25.9208   -2.3178 H         1 <0>         0.0452
     52 H14       2.2930  -24.2339   -2.4868 H         1 <0>         0.0253
     53 H15       1.9210  -26.0356    1.4107 H         1 <0>         0.0376
     54 H16       2.5476  -27.0402    0.1045 H         1 <0>         0.0409
     55 H17      -4.7599  -24.4269    0.7595 H         1 <0>         0.0881
     56 H18      -4.7694  -22.7139    1.2414 H         1 <0>         0.0533
     57 H19       1.6148  -24.1295   -0.1205 H         1 <0>         0.0485
     58 H20      -2.4172  -24.6643    1.7185 H         1 <0>         0.0655
     59 H21       0.9008  -22.4795   -2.2613 H         1 <0>         0.0983
     60 H22       0.6524  -21.8685   -3.9362 H         1 <0>         0.1860
     61 H23       2.3139  -21.9487   -3.2437 H         1 <0>         0.0675
     62 H24       1.8126  -20.9755   -0.6032 H         1 <0>         0.1231
     63 H25       1.6400  -19.2240   -0.8150 H         1 <0>         0.0993
     64 H26      -0.8759  -20.2584   -3.1291 H         1 <0>         0.0685
     65 H27      -0.3370  -18.9376   -2.0734 H         1 <0>         0.1419
     66 H28      -3.3484  -24.9957    5.2987 H         1 <0>         0.0232
     67 H29      -2.2178  -25.5869    4.0803 H         1 <0>         0.0349
     68 H30       4.3851  -25.3635   -0.4084 H         1 <0>         0.0560
     69 H31       3.8175  -24.3578    0.9469 H         1 <0>         0.0743
     70 H32      -4.4384  -23.5026    3.6680 H         1 <0>         0.0614
     71 H33      -4.4195  -25.1708    3.0892 H         1 <0>         0.0626
     72 H34       4.4061  -23.4890   -1.7961 H         1 <0>         0.3178
     73 H35       1.4472  -19.7499   -3.2353 H         1 <0>         0.4341
@<TRIPOS>BOND
     1    1    2 ar
     2    1    3 ar
     3    2    4 ar
     4    3    7 ar
     5    4    9 ar
     6    5    6 ar
     7    5   10 ar
     8    6   11 ar
     9    7    9 ar
    10    7   13 1
    11    8   10 ar
    12    8   12 ar
    13    8   14 1
    14    9   25 1
    15   10   26 1
    16   11   12 ar
    17   11   38 1
    18   12   37 1
    19   13   30 am
    20   13   34 2
    21   14   32 1
    22   14   35 2
    23   15   27 1
    24   15   33 1
    25   15   36 2
    26   16   17 1
    27   16   18 1
    28   17   19 1
    29   18   20 1
    30   19   22 1
    31   20   22 1
    32   21   23 1
    33   21   37 1
    34   22   28 1
    35   23   29 1
    36   23   38 1
    37   24   31 1
    38   25   31 1
    39   26   31 1
    40   27   29 1
    41   28   30 1
    42    1   39 1
    43    2   40 1
    44    3   41 1
    45    4   42 1
    46    5   43 1
    47    6   44 1
    48   16   45 1
    49   16   46 1
    50   17   47 1
    51   17   48 1
    52   18   49 1
    53   18   50 1
    54   19   51 1
    55   19   52 1
    56   20   53 1
    57   20   54 1
    58   21   55 1
    59   21   56 1
    60   22   57 1
    61   23   58 1
    62   24   59 1
    63   24   60 1
    64   24   61 1
    65   25   62 1
    66   25   63 1
    67   26   64 1
    68   26   65 1
    69   27   66 1
    70   27   67 1
    71   28   68 1
    72   28   69 1
    73   29   70 1
    74   29   71 1
    75   30   72 1
    76   31   73 1
