@<TRIPOS>MOLECULE
AVX40812_0_11
   59    62     0     0     0
SMALL
USER_CHARGES

@<TRIPOS>ATOM
      1 C1        7.5633  -25.1627    0.2762 C.ar      1 <0>        -0.1593
      2 C2        8.7614  -25.1761   -0.4357 C.ar      1 <0>        -0.1183
      3 C3        6.5737  -24.2124   -0.0033 C.ar      1 <0>        -0.0764
      4 C4       -0.2117  -23.9443    1.0516 C.ar      1 <0>        -0.1418
      5 C5        9.0088  -24.2433   -1.4468 C.ar      1 <0>        -0.1494
      6 C6       -0.9961  -22.8893    1.5258 C.ar      1 <0>        -0.1419
      7 C7        6.7912  -21.5983   -2.5487 C.2       1 <0>         0.0125
      8 C8        6.8004  -23.2619   -1.0183 C.ar      1 <0>        -0.0758
      9 C9       -0.0585  -24.8932    3.2877 C.ar      1 <0>        -0.0693
     10 C10       0.2544  -24.9405    1.9274 C.ar      1 <0>        -0.0750
     11 C11       6.0414  -22.1838   -1.5550 C.2       1 <0>        -0.1120
     12 C12       8.0104  -23.2991   -1.7154 C.ar      1 <0>         0.0782
     13 C13      -1.2907  -22.8659    2.8732 C.ar      1 <0>         0.0330
     14 C14      -0.8345  -23.8410    3.7306 C.ar      1 <0>         0.0597
     15 C15       0.4177  -25.9243    4.2241 C.2       1 <0>         0.9222
     16 C16       4.1725  -22.4721    0.1190 C.2       1 <0>         0.6517
     17 C17      -1.9990  -22.4133    4.8668 C.3       1 <0>         0.3190
     18 C18       1.4789  -26.6514   -2.6220 C.3       1 <0>        -0.0879
     19 C19       2.7323  -28.7431   -2.0579 C.3       1 <0>        -0.0891
     20 C20       4.6651  -21.7520   -1.1212 C.3       1 <0>        -0.0868
     21 C21       1.0992  -26.0602    1.3659 C.3       1 <0>        -0.0290
     22 C22       2.7535  -26.8378   -0.4193 C.3       1 <0>        -0.0680
     23 C23       3.0873  -24.5974    0.8084 C.3       1 <0>         0.0766
     24 C24       1.9198  -27.5757   -1.4867 C.3       1 <0>        -0.0707
     25 C25       2.0759  -25.6140    0.2483 C.3       1 <0>        -0.0854
     26 N1        7.9770  -22.2780   -2.6381 N.pl3     1 <0>        -0.5844
     27 N2        3.6229  -23.7128   -0.1895 N.am      1 <0>        -0.5599
     28 O1       -0.2535  -27.0172    4.3358 O.co2     1 <0>        -0.8127
     29 O2        1.4896  -25.6995    4.9011 O.co2     1 <0>        -0.8227
     30 O3        4.2585  -22.0064    1.2526 O.2       1 <0>        -0.5940
     31 O4       -2.0371  -21.9230    3.5115 O.3       1 <0>        -0.3589
     32 O5       -1.2379  -23.6305    5.0129 O.3       1 <0>        -0.3140
     33 H1        7.3940  -25.8975    1.0584 H         1 <0>         0.1267
     34 H2        9.5164  -25.9230   -0.2023 H         1 <0>         0.1216
     35 H3        5.6448  -24.2151    0.5604 H         1 <0>         0.1383
     36 H4        0.0361  -23.9878   -0.0061 H         1 <0>         0.1182
     37 H5        9.9422  -24.2544   -2.0000 H         1 <0>         0.1254
     38 H6       -1.3575  -22.1192    0.8539 H         1 <0>         0.1303
     39 H7        6.5890  -20.7595   -3.2006 H         1 <0>         0.1665
     40 H8       -1.5547  -21.6420    5.5060 H         1 <0>         0.0482
     41 H9       -3.0263  -22.5982    5.2012 H         1 <0>         0.0472
     42 H10       2.3412  -26.1985   -3.1222 H         1 <0>         0.0242
     43 H11       0.9060  -27.2056   -3.3731 H         1 <0>         0.0211
     44 H12       0.8353  -25.8459   -2.2547 H         1 <0>         0.0453
     45 H13       3.6458  -28.3819   -2.5416 H         1 <0>         0.0221
     46 H14       2.1524  -29.2899   -2.8087 H         1 <0>         0.0240
     47 H15       3.0219  -29.4494   -1.2724 H         1 <0>         0.0343
     48 H16       4.6620  -20.6713   -0.9270 H         1 <0>         0.0530
     49 H17       3.9491  -21.9252   -1.9344 H         1 <0>         0.0663
     50 H18       0.4133  -26.8245    0.9768 H         1 <0>         0.0359
     51 H19       1.6542  -26.5481    2.1775 H         1 <0>         0.0904
     52 H20       3.0414  -27.5561    0.3598 H         1 <0>         0.0473
     53 H21       3.6909  -26.5122   -0.8879 H         1 <0>         0.0171
     54 H22       2.6151  -23.9706    1.5736 H         1 <0>         0.0975
     55 H23       3.9329  -25.1011    1.2864 H         1 <0>         0.0852
     56 H24       1.0251  -28.0024   -1.0199 H         1 <0>         0.0592
     57 H25       1.4910  -25.0878   -0.5165 H         1 <0>         0.0500
     58 H26       8.7210  -22.0625   -3.2874 H         1 <0>         0.4434
     59 H27       3.5992  -24.0070   -1.1650 H         1 <0>         0.2913
@<TRIPOS>BOND
     1    1    2 ar
     2    1    3 ar
     3    2    5 ar
     4    3    8 ar
     5    4    6 ar
     6    4   10 ar
     7    5   12 ar
     8    6   13 ar
     9    7   11 2
    10    7   26 1
    11    8   11 1
    12    8   12 ar
    13    9   10 ar
    14    9   14 ar
    15    9   15 1
    16   10   21 1
    17   11   20 1
    18   12   26 1
    19   13   14 ar
    20   13   31 1
    21   14   32 1
    22   15   28 1
    23   15   29 2
    24   16   20 1
    25   16   27 am
    26   16   30 2
    27   17   31 1
    28   17   32 1
    29   18   24 1
    30   19   24 1
    31   21   25 1
    32   22   24 1
    33   22   25 1
    34   23   25 1
    35   23   27 1
    36    1   33 1
    37    2   34 1
    38    3   35 1
    39    4   36 1
    40    5   37 1
    41    6   38 1
    42    7   39 1
    43   17   40 1
    44   17   41 1
    45   18   42 1
    46   18   43 1
    47   18   44 1
    48   19   45 1
    49   19   46 1
    50   19   47 1
    51   20   48 1
    52   20   49 1
    53   21   50 1
    54   21   51 1
    55   22   52 1
    56   22   53 1
    57   23   54 1
    58   23   55 1
    59   24   56 1
    60   25   57 1
    61   26   58 1
    62   27   59 1
