@<TRIPOS>MOLECULE
AVX40911_0_8
   31    33     0     0     0
SMALL
USER_CHARGES

@<TRIPOS>ATOM
      1 C1        8.7806  -41.8898   -0.6526 C.ar      1 <0>        -0.1468
      2 C2        7.7656  -42.8040   -0.3501 C.ar      1 <0>        -0.1467
      3 C3       10.1188  -42.2808   -0.5830 C.ar      1 <0>        -0.1342
      4 C4        8.0900  -44.1093    0.0209 C.ar      1 <0>        -0.1371
      5 C5       10.4433  -43.5861   -0.2121 C.ar      1 <0>        -0.0999
      6 C6       11.6232  -45.4036   -1.9341 C.ar      1 <0>        -0.1312
      7 C7       12.6046  -44.8511   -2.7625 C.ar      1 <0>        -0.1488
      8 C8        9.4289  -44.5003    0.0900 C.ar      1 <0>        -0.0363
      9 C9       11.9715  -45.9647   -0.6923 C.ar      1 <0>        -0.0679
     10 C10      13.3050  -45.9799   -0.2646 C.ar      1 <0>        -0.0594
     11 C11      13.9167  -44.8369   -2.2846 C.ar      1 <0>         0.0381
     12 C12      14.2546  -45.4278   -1.1011 C.ar      1 <0>         0.0562
     13 C13       9.7718  -45.8793    0.4822 C.2       1 <0>        -0.1556
     14 C14      10.9055  -46.5268    0.1312 C.2       1 <0>        -0.0443
     15 C15      13.7063  -46.5599    1.0304 C.2       1 <0>         0.9237
     16 C16      16.0588  -44.6944   -2.0504 C.3       1 <0>         0.3186
     17 O1       14.9315  -46.4328    1.4141 O.co2     1 <0>        -0.8125
     18 O2       12.8176  -47.1736    1.7319 O.co2     1 <0>        -0.8141
     19 O3       14.9909  -44.3721   -2.9786 O.3       1 <0>        -0.3586
     20 O4       15.5943  -45.3524   -0.8539 O.3       1 <0>        -0.3119
     21 H1        8.5281  -40.8734   -0.9417 H         1 <0>         0.1135
     22 H2        6.7231  -42.4994   -0.4040 H         1 <0>         0.1124
     23 H3       10.9085  -41.5687   -0.8186 H         1 <0>         0.1264
     24 H4        7.2882  -44.8103    0.2536 H         1 <0>         0.1200
     25 H5       11.4915  -43.8759   -0.1629 H         1 <0>         0.1790
     26 H6       10.5844  -45.3924   -2.2671 H         1 <0>         0.1225
     27 H7       12.3408  -44.4170   -3.7205 H         1 <0>         0.1298
     28 H8        9.0461  -46.3689    1.1286 H         1 <0>         0.1189
     29 H9       11.0464  -47.5641    0.4507 H         1 <0>         0.1477
     30 H10      16.7862  -45.3455   -2.5484 H         1 <0>         0.0493
     31 H11      16.5610  -43.7594   -1.7650 H         1 <0>         0.0491
@<TRIPOS>BOND
     1    1    2 ar
     2    1    3 ar
     3    2    4 ar
     4    3    5 ar
     5    4    8 ar
     6    5    8 ar
     7    6    7 ar
     8    6    9 ar
     9    7   11 ar
    10    8   13 1
    11    9   10 ar
    12    9   14 1
    13   10   12 ar
    14   10   15 1
    15   11   12 ar
    16   11   19 1
    17   12   20 1
    18   13   14 2
    19   15   17 1
    20   15   18 2
    21   16   19 1
    22   16   20 1
    23    1   21 1
    24    2   22 1
    25    3   23 1
    26    4   24 1
    27    5   25 1
    28    6   26 1
    29    7   27 1
    30   13   28 1
    31   14   29 1
    32   16   30 1
    33   16   31 1
