@<TRIPOS>MOLECULE
GL5243100_0_24
   53    55     0     0     0
SMALL
USER_CHARGES

@<TRIPOS>ATOM
      1 C1       11.5948  -44.1929   -1.4124 C.ar      1 <0>        -0.1414
      2 C2       12.4848  -44.0332   -2.4837 C.ar      1 <0>        -0.1427
      3 C3       11.9394  -49.4276    5.1569 C.2       1 <0>        -0.1827
      4 C4       11.6521  -48.8271    6.3705 C.2       1 <0>        -0.1778
      5 C5       10.1382  -48.1018    4.8882 C.2       1 <0>        -0.1409
      6 C6       13.1374  -45.7168   -0.3054 C.ar      1 <0>        -0.0721
      7 C7       11.9193  -45.0296   -0.3295 C.ar      1 <0>        -0.0718
      8 C8       10.9815  -48.9688    4.2191 C.2       1 <0>        -0.1422
      9 C9       13.6808  -44.7228   -2.4354 C.ar      1 <0>         0.0306
     10 C10      13.9985  -45.5419   -1.3753 C.ar      1 <0>         0.0637
     11 C11      13.4996  -46.5982    0.8171 C.2       1 <0>         0.9216
     12 C12       9.8754  -48.5490    1.9839 C.2       1 <0>         0.6554
     13 C13      15.6381  -45.5819   -2.7984 C.3       1 <0>         0.3198
     14 C14       7.4009  -43.3801    0.5292 C.3       1 <0>        -0.0883
     15 C15       7.1008  -43.9739    2.9497 C.3       1 <0>        -0.0886
     16 C16      10.8990  -49.3551    2.7595 C.3       1 <0>        -0.0758
     17 C17      10.9234  -45.1691    0.8044 C.3       1 <0>        -0.0322
     18 C18       8.4768  -45.4916    1.4762 C.3       1 <0>        -0.0696
     19 C19       9.6648  -47.1810   -0.0816 C.3       1 <0>         0.0758
     20 C20       8.0601  -44.0287    1.7485 C.3       1 <0>        -0.0695
     21 C21       9.5396  -45.7086    0.3609 C.3       1 <0>        -0.0799
     22 N1       10.5556  -48.0230    6.1951 N.pl3     1 <0>        -0.1848
     23 N2       10.4259  -47.9882    0.8319 N.am      1 <0>        -0.5555
     24 O1       14.2334  -46.1252    1.7679 O.co2     1 <0>        -0.8112
     25 O2       13.0710  -47.8135    0.8114 O.co2     1 <0>        -0.8279
     26 O3        8.7047  -48.4189    2.3393 O.2       1 <0>        -0.6122
     27 O4       14.6653  -44.6906   -3.3812 O.3       1 <0>        -0.3586
     28 O5       15.2216  -46.1252   -1.5251 O.3       1 <0>        -0.3159
     29 H1       10.6445  -43.6614   -1.4241 H         1 <0>         0.1215
     30 H2       12.2386  -43.3890   -3.3205 H         1 <0>         0.1275
     31 H3       12.7513  -50.1206    4.9725 H         1 <0>         0.1502
     32 H4       12.1284  -48.9004    7.3401 H         1 <0>         0.1570
     33 H5        9.2814  -47.5338    4.5537 H         1 <0>         0.1697
     34 H6       15.8203  -46.4113   -3.4993 H         1 <0>         0.0478
     35 H7       16.5750  -45.0317   -2.6547 H         1 <0>         0.0477
     36 H8        6.5080  -43.9333    0.2187 H         1 <0>         0.0293
     37 H9        7.0990  -42.3500    0.7575 H         1 <0>         0.0185
     38 H10       8.0884  -43.3388   -0.3262 H         1 <0>         0.0427
     39 H11       6.1900  -44.5457    2.7428 H         1 <0>         0.0228
     40 H12       6.8032  -42.9410    3.1693 H         1 <0>         0.0218
     41 H13       7.5640  -44.3886    3.8528 H         1 <0>         0.0332
     42 H14      11.8826  -49.2286    2.2838 H         1 <0>         0.0489
     43 H15      10.6472  -50.4197    2.6701 H         1 <0>         0.0668
     44 H16      10.8050  -44.1769    1.2692 H         1 <0>         0.0342
     45 H17      11.3436  -45.8110    1.5898 H         1 <0>         0.0934
     46 H18       8.8456  -45.9280    2.4157 H         1 <0>         0.0474
     47 H19       7.5735  -46.0579    1.2158 H         1 <0>         0.0216
     48 H20       8.6729  -47.6384   -0.1649 H         1 <0>         0.0914
     49 H21      10.1400  -47.2662   -1.0695 H         1 <0>         0.0933
     50 H22       8.9448  -43.4409    2.0191 H         1 <0>         0.0571
     51 H23       9.2279  -45.1422   -0.5273 H         1 <0>         0.0502
     52 H24      10.1208  -47.4592    6.9189 H         1 <0>         0.2871
     53 H25      11.4111  -48.1572    0.6272 H         1 <0>         0.2935
@<TRIPOS>BOND
     1    1    2 ar
     2    1    7 ar
     3    2    9 ar
     4    3    4 2
     5    3    8 1
     6    4   22 1
     7    5    8 2
     8    5   22 1
     9    6    7 ar
    10    6   10 ar
    11    6   11 1
    12    7   17 1
    13    8   16 1
    14    9   10 ar
    15    9   27 1
    16   10   28 1
    17   11   24 1
    18   11   25 2
    19   12   16 1
    20   12   23 am
    21   12   26 2
    22   13   27 1
    23   13   28 1
    24   14   20 1
    25   15   20 1
    26   17   21 1
    27   18   20 1
    28   18   21 1
    29   19   21 1
    30   19   23 1
    31    1   29 1
    32    2   30 1
    33    3   31 1
    34    4   32 1
    35    5   33 1
    36   13   34 1
    37   13   35 1
    38   14   36 1
    39   14   37 1
    40   14   38 1
    41   15   39 1
    42   15   40 1
    43   15   41 1
    44   16   42 1
    45   16   43 1
    46   17   44 1
    47   17   45 1
    48   18   46 1
    49   18   47 1
    50   19   48 1
    51   19   49 1
    52   20   50 1
    53   21   51 1
    54   22   52 1
    55   23   53 1
