@<TRIPOS>MOLECULE
GL5243102_0_5
   52    54     0     0     0
SMALL
USER_CHARGES

@<TRIPOS>ATOM
      1 C1       11.7203  -44.5435   -1.7029 C.ar      1 <0>        -0.1408
      2 C2       12.5858  -44.4441   -2.8032 C.ar      1 <0>        -0.1427
      3 C3       10.6950  -48.4180    5.7228 C.2       1 <0>        -0.2406
      4 C4        8.5446  -48.0592    5.3630 C.2       1 <0>         0.3791
      5 C5       13.4599  -45.6316   -0.3897 C.ar      1 <0>        -0.0701
      6 C6       12.1548  -45.1338   -0.5029 C.ar      1 <0>        -0.0728
      7 C7       13.8641  -44.9864   -2.6725 C.ar      1 <0>         0.0317
      8 C8       14.2946  -45.5211   -1.4908 C.ar      1 <0>         0.0614
      9 C9       10.3295  -48.8151    4.4576 C.2       1 <0>         0.3239
     10 C10      13.9379  -46.2537    0.8559 C.2       1 <0>         0.9207
     11 C11      10.6440  -49.2340    1.9811 C.2       1 <0>         0.6551
     12 C12      15.9335  -45.5717   -2.9199 C.3       1 <0>         0.3192
     13 C13       7.7757  -43.7294   -0.5479 C.3       1 <0>        -0.0885
     14 C14       7.0678  -43.5328    1.8503 C.3       1 <0>        -0.0886
     15 C15      11.1811  -45.2176    0.6579 C.3       1 <0>        -0.0310
     16 C16      11.1986  -49.4248    3.3798 C.3       1 <0>        -0.1754
     17 C17       8.6756  -45.3599    1.1966 C.3       1 <0>        -0.0687
     18 C18       9.9888  -47.4355    0.3990 C.3       1 <0>         0.0784
     19 C19       8.2199  -43.9154    0.9033 C.3       1 <0>        -0.0696
     20 C20       9.8333  -45.9061    0.3104 C.3       1 <0>        -0.0829
     21 N1        8.9896  -48.5889    4.2397 N.2       1 <0>        -0.6519
     22 N2        9.5412  -47.9355    6.2907 N.pl3     1 <0>        -0.3259
     23 N3       10.4925  -47.8872    1.6669 N.am      1 <0>        -0.5643
     24 O1       14.5430  -45.5187    1.7230 O.co2     1 <0>        -0.8134
     25 O2       13.7355  -47.5124    1.0374 O.co2     1 <0>        -0.8247
     26 O3       10.3705  -50.1645    1.2268 O.2       1 <0>        -0.5912
     27 O4       14.8498  -44.9021   -3.6171 O.3       1 <0>        -0.3587
     28 O5       15.5907  -45.9463   -1.5661 O.3       1 <0>        -0.3151
     29 H1       10.7029  -44.1584   -1.7835 H         1 <0>         0.1226
     30 H2       12.2549  -43.9897   -3.7302 H         1 <0>         0.1276
     31 H3       11.6361  -48.4322    6.2553 H         1 <0>         0.1783
     32 H4        7.5253  -47.7463    5.5672 H         1 <0>         0.0536
     33 H5       16.2310  -46.4721   -3.4726 H         1 <0>         0.0480
     34 H6       16.7882  -44.8824   -2.8925 H         1 <0>         0.0480
     35 H7        6.9446  -44.3997   -0.7965 H         1 <0>         0.0291
     36 H8        7.4402  -42.7010   -0.7216 H         1 <0>         0.0199
     37 H9        8.6005  -43.9257   -1.2479 H         1 <0>         0.0436
     38 H10       6.2014  -44.1886    1.7013 H         1 <0>         0.0232
     39 H11       6.7380  -42.5042    1.6681 H         1 <0>         0.0228
     40 H12       7.3722  -43.6100    2.8996 H         1 <0>         0.0327
     41 H13      10.9921  -44.1923    1.0053 H         1 <0>         0.0350
     42 H14      11.6584  -45.7315    1.5023 H         1 <0>         0.0903
     43 H15      12.2063  -48.9873    3.4218 H         1 <0>         0.0727
     44 H16      11.3195  -50.5000    3.5642 H         1 <0>         0.0593
     45 H17       8.9711  -45.4267    2.2522 H         1 <0>         0.0460
     46 H18       7.8008  -46.0167    1.0894 H         1 <0>         0.0213
     47 H19       9.0190  -47.9259    0.2460 H         1 <0>         0.0927
     48 H20      10.6687  -47.8132   -0.3778 H         1 <0>         0.0875
     49 H21       9.0497  -43.2256    1.1021 H         1 <0>         0.0571
     50 H22       9.6015  -45.6735   -0.7368 H         1 <0>         0.0507
     51 H23       9.4422  -47.5565    7.2255 H         1 <0>         0.2944
     52 H24      10.7494  -47.1910    2.3658 H         1 <0>         0.2908
@<TRIPOS>BOND
     1    1    2 ar
     2    1    6 ar
     3    2    7 ar
     4    3    9 2
     5    3   22 1
     6    4   21 2
     7    4   22 1
     8    5    6 ar
     9    5    8 ar
    10    5   10 1
    11    6   15 1
    12    7    8 ar
    13    7   27 1
    14    8   28 1
    15    9   16 1
    16    9   21 1
    17   10   24 1
    18   10   25 2
    19   11   16 1
    20   11   23 am
    21   11   26 2
    22   12   27 1
    23   12   28 1
    24   13   19 1
    25   14   19 1
    26   15   20 1
    27   17   19 1
    28   17   20 1
    29   18   20 1
    30   18   23 1
    31    1   29 1
    32    2   30 1
    33    3   31 1
    34    4   32 1
    35   12   33 1
    36   12   34 1
    37   13   35 1
    38   13   36 1
    39   13   37 1
    40   14   38 1
    41   14   39 1
    42   14   40 1
    43   15   41 1
    44   15   42 1
    45   16   43 1
    46   16   44 1
    47   17   45 1
    48   17   46 1
    49   18   47 1
    50   18   48 1
    51   19   49 1
    52   20   50 1
    53   22   51 1
    54   23   52 1
