@<TRIPOS>MOLECULE
pC2A03_0_2
   30    32     0     0     0
SMALL
USER_CHARGES

@<TRIPOS>ATOM
      1 C1        7.1150  -22.9312   -1.6686 C.ar      1 <0>        -0.1749
      2 C2        6.1668  -23.9329    0.3147 C.ar      1 <0>        -0.1614
      3 C3        8.1133  -23.9049   -1.6833 C.ar      1 <0>        -0.0789
      4 C4        7.1650  -24.9067    0.3000 C.ar      1 <0>        -0.0768
      5 C5        6.1418  -22.9450   -0.6696 C.ar      1 <0>         0.1031
      6 C6        8.1392  -24.8918   -0.6990 C.ar      1 <0>        -0.0561
      7 C7        5.0086  -20.8539   -1.5035 C.2       1 <0>        -0.1275
      8 C8        3.9216  -20.1349   -1.1977 C.2       1 <0>        -0.0478
      9 C9        4.0030  -21.8890    0.2668 C.2       1 <0>         0.7917
     10 C10       3.3962  -18.8924   -1.8257 C.3       1 <0>        -0.0155
     11 C11       2.4354  -18.1380   -0.9028 C.3       1 <0>        -0.0801
     12 C12       1.4226  -19.0980   -0.2778 C.3       1 <0>        -0.0916
     13 C13       2.1352  -20.1662    0.5451 C.3       1 <0>         0.1202
     14 N1        5.1192  -21.9481   -0.6548 N.am      1 <0>        -0.2673
     15 N2        3.2820  -20.7291   -0.1366 N.am      1 <0>        -0.3625
     16 O1        3.7085  -22.6227    1.1984 O.2       1 <0>        -0.6397
     17 Br1       9.4923  -26.2104   -0.7189 Br        1 <0>        -0.0889
     18 H1        7.1051  -22.1660   -2.4402 H         1 <0>         0.1368
     19 H2        5.4133  -23.9530    1.0977 H         1 <0>         0.1834
     20 H3        8.8643  -23.8805   -2.4684 H         1 <0>         0.1467
     21 H4        7.1708  -25.6695    1.0740 H         1 <0>         0.1500
     22 H5        5.7362  -20.6760   -2.2798 H         1 <0>         0.1833
     23 H6        4.2180  -18.2297   -2.1193 H         1 <0>         0.0601
     24 H7        2.8584  -19.1679   -2.7413 H         1 <0>         0.0610
     25 H8        3.0007  -17.6309   -0.1105 H         1 <0>         0.0519
     26 H9        1.9124  -17.3616   -1.4719 H         1 <0>         0.0507
     27 H10       0.7173  -18.5494    0.3555 H         1 <0>         0.0555
     28 H11       0.8386  -19.5762   -1.0744 H         1 <0>         0.0584
     29 H12       2.5047  -19.7382    1.4850 H         1 <0>         0.0701
     30 H13       1.4518  -20.9793    0.8141 H         1 <0>         0.0461
@<TRIPOS>BOND
     1    1    3 ar
     2    1    5 ar
     3    2    4 ar
     4    2    5 ar
     5    3    6 ar
     6    4    6 ar
     7    5   14 1
     8    6   17 1
     9    7    8 2
    10    7   14 1
    11    8   10 1
    12    8   15 1
    13    9   14 am
    14    9   15 am
    15    9   16 2
    16   10   11 1
    17   11   12 1
    18   12   13 1
    19   13   15 1
    20    1   18 1
    21    2   19 1
    22    3   20 1
    23    4   21 1
    24    7   22 1
    25   10   23 1
    26   10   24 1
    27   11   25 1
    28   11   26 1
    29   12   27 1
    30   12   28 1
    31   13   29 1
    32   13   30 1
