@<TRIPOS>MOLECULE
*****
   27    27     0     0     0
SMALL
NO_CHARGES

@<TRIPOS>ATOM
      1 C1         -0.3372   -0.7418   -0.7315 C.3       1 <0>         0.0000
      2 C2          0.2080   -2.5991    0.8401 C.3       1 <0>         0.0000
      3 C3         -1.8153   -1.0548   -0.5971 C.3       1 <0>         0.0000
      4 C4         -1.2678   -2.9196    0.9817 C.3       1 <0>         0.0000
      5 C5         -3.5431   -1.8932    0.9975 C.3       1 <0>         0.0000
      6 C6         -3.8398   -1.9489    2.4834 C.3       1 <0>         0.0000
      7 N1          0.4520   -1.9874   -0.4995 N.4       1 <0>         0.0000
      8 N2         -2.0764   -1.6610    0.7632 N.4       1 <0>         0.0000
      9 N3         -5.2952   -2.1171    2.7155 N.4       1 <0>         0.0000
     10 H1         -0.0931   -0.3926   -1.7389 H         1 <0>         0.0000
     11 H2          0.0000    0.0002   -0.0003 H         1 <0>         0.0000
     12 H3          0.5532   -1.8831    1.5934 H         1 <0>         0.0000
     13 H4          0.8208   -3.5034    0.8939 H         1 <0>         0.0000
     14 H5         -2.4116   -0.1395   -0.6684 H         1 <0>         0.0000
     15 H6         -2.1550   -1.7730   -1.3519 H         1 <0>         0.0000
     16 H7         -1.6013   -3.6603    0.2460 H         1 <0>         0.0000
     17 H8         -1.4884   -3.2811    1.9913 H         1 <0>         0.0000
     18 H9         -3.8096   -2.8192    0.4789 H         1 <0>         0.0000
     19 H10        -4.0649   -1.0534    0.5293 H         1 <0>         0.0000
     20 H11        -3.5581   -1.0108    2.9704 H         1 <0>         0.0000
     21 H12        -3.3354   -2.7816    2.9831 H         1 <0>         0.0000
     22 H13         0.2382   -2.6736   -1.2369 H         1 <0>         0.0000
     23 H14         1.4544   -1.7762   -0.5985 H         1 <0>         0.0000
     24 H15        -1.7732   -0.9748    1.4682 H         1 <0>         0.0000
     25 H16        -5.6297   -1.4675    3.4352 H         1 <0>         0.0000
     26 H17        -5.5089   -3.0709    3.0269 H         1 <0>         0.0000
     27 H18        -5.8269   -1.9385    1.8567 H         1 <0>         0.0000
@<TRIPOS>BOND
     1    1    3 1
     2    1    7 1
     3    2    4 1
     4    2    7 1
     5    3    8 1
     6    4    8 1
     7    5    6 1
     8    5    8 1
     9    6    9 1
    10    1   10 1
    11    1   11 1
    12    2   12 1
    13    2   13 1
    14    3   14 1
    15    3   15 1
    16    4   16 1
    17    4   17 1
    18    5   18 1
    19    5   19 1
    20    6   20 1
    21    6   21 1
    22    7   22 1
    23    7   23 1
    24    8   24 1
    25    9   25 1
    26    9   26 1
    27    9   27 1
