@<TRIPOS>MOLECULE
*****
   22    23     0     0     0
SMALL
NO_CHARGES

@<TRIPOS>ATOM
      1 C1         -0.6538   -0.8506   -0.2234 C.3       1 <0>         0.0000
      2 C2          0.1836   -2.1278   -0.3962 C.3       1 <0>         0.0000
      3 C3         -0.2219   -1.1882   -2.5381 C.3       1 <0>         0.0000
      4 C4         -2.4054   -1.7649   -1.7693 C.3       1 <0>         0.0000
      5 C5         -1.3189   -0.6837   -1.6012 C.3       1 <0>         0.0000
      6 C6         -0.1266   -2.5504   -1.8441 C.3       1 <0>         0.0000
      7 C7         -1.5802   -3.0561   -1.8884 C.3       1 <0>         0.0000
      8 N1         -1.8560   -3.7157   -3.1884 N.4       1 <0>         0.0000
      9 H1         -1.3835   -0.9435    0.5872 H         1 <0>         0.0000
     10 H2         -0.0005    0.0003   -0.0000 H         1 <0>         0.0000
     11 H3          1.2487   -1.8990   -0.2771 H         1 <0>         0.0000
     12 H4         -0.0840   -2.8971    0.3350 H         1 <0>         0.0000
     13 H5         -0.5387   -1.2442   -3.5839 H         1 <0>         0.0000
     14 H6          0.7026   -0.6046   -2.4708 H         1 <0>         0.0000
     15 H7         -3.0809   -1.7956   -0.9079 H         1 <0>         0.0000
     16 H8         -3.0062   -1.5698   -2.6653 H         1 <0>         0.0000
     17 H9         -1.6770    0.3293   -1.7943 H         1 <0>         0.0000
     18 H10         0.6101   -3.2396   -2.2629 H         1 <0>         0.0000
     19 H11        -1.8135   -3.7871   -1.1082 H         1 <0>         0.0000
     20 H12        -1.2785   -4.5553   -3.3036 H         1 <0>         0.0000
     21 H13        -1.6538   -3.0832   -3.9702 H         1 <0>         0.0000
     22 H14        -2.8400   -3.9970   -3.2555 H         1 <0>         0.0000
@<TRIPOS>BOND
     1    1    2 1
     2    1    5 1
     3    2    6 1
     4    3    5 1
     5    3    6 1
     6    4    5 1
     7    4    7 1
     8    6    7 1
     9    7    8 1
    10    1    9 1
    11    1   10 1
    12    2   11 1
    13    2   12 1
    14    3   13 1
    15    3   14 1
    16    4   15 1
    17    4   16 1
    18    5   17 1
    19    6   18 1
    20    7   19 1
    21    8   20 1
    22    8   21 1
    23    8   22 1
