@<TRIPOS>MOLECULE
*****
   22    23     0     0     0
SMALL
NO_CHARGES

@<TRIPOS>ATOM
      1 C1          0.2344   -0.8375   -0.6665 C.3       1 <0>         0.0000
      2 C2          1.6485   -1.3617   -0.3774 C.3       1 <0>         0.0000
      3 C3          1.7722    0.1494   -2.1951 C.3       1 <0>         0.0000
      4 C4          0.3874   -1.6048   -3.0448 C.3       1 <0>         0.0000
      5 C5          0.3325   -0.3663   -2.1278 C.3       1 <0>         0.0000
      6 C6          2.3672   -1.1833   -1.7271 C.3       1 <0>         0.0000
      7 C7          1.8120   -2.1259   -2.8112 C.3       1 <0>         0.0000
      8 N1          1.8074   -3.5400   -2.3960 N.4       1 <0>         0.0000
      9 H1         -0.5277   -1.6104   -0.5250 H         1 <0>         0.0000
     10 H2         -0.0001    0.0001   -0.0001 H         1 <0>         0.0000
     11 H3          2.1232   -0.7398    0.3912 H         1 <0>         0.0000
     12 H4          1.6464   -2.3905   -0.0085 H         1 <0>         0.0000
     13 H5          2.0829    0.4332   -3.2063 H         1 <0>         0.0000
     14 H6          1.9672    0.9776   -1.5056 H         1 <0>         0.0000
     15 H7         -0.3984   -2.3311   -2.8128 H         1 <0>         0.0000
     16 H8          0.2721   -1.3018   -4.0921 H         1 <0>         0.0000
     17 H9         -0.4409    0.3507   -2.4099 H         1 <0>         0.0000
     18 H10         3.4564   -1.2000   -1.6466 H         1 <0>         0.0000
     19 H11         2.4062   -2.0684   -3.7303 H         1 <0>         0.0000
     20 H12         1.2776   -3.6749   -1.5241 H         1 <0>         0.0000
     21 H13         2.7625   -3.8872   -2.2327 H         1 <0>         0.0000
     22 H14         1.3793   -4.1417   -3.1129 H         1 <0>         0.0000
@<TRIPOS>BOND
     1    1    2 1
     2    1    5 1
     3    2    6 1
     4    3    5 1
     5    3    6 1
     6    4    5 1
     7    4    7 1
     8    6    7 1
     9    7    8 1
    10    1    9 1
    11    1   10 1
    12    2   11 1
    13    2   12 1
    14    3   13 1
    15    3   14 1
    16    4   15 1
    17    4   16 1
    18    5   17 1
    19    6   18 1
    20    7   19 1
    21    8   20 1
    22    8   21 1
    23    8   22 1
