@<TRIPOS>MOLECULE
*****
   31    32     0     0     0
SMALL
NO_CHARGES

@<TRIPOS>ATOM
      1 C1          1.0938    1.3606   -0.8863 C.3       1 <0>         0.0000
      2 C2          1.5606   -0.0747   -0.5914 C.3       1 <0>         0.0000
      3 C3         -0.3291    1.3675    1.1432 C.3       1 <0>         0.0000
      4 C4         -0.3750    1.3526   -0.4053 C.3       1 <0>         0.0000
      5 C5          0.0857   -0.0751    1.4761 C.3       1 <0>         0.0000
      6 C6          0.3107   -0.7169    0.0741 C.3       1 <0>         0.0000
      7 C7         -0.8592   -0.0827   -0.7489 C.3       1 <0>         0.0000
      8 C8          0.3748   -2.2332    0.1028 C.3       1 <0>         0.0000
      9 C9         -0.8658   -0.3997   -2.2586 C.3       1 <0>         0.0000
     10 C10        -2.2823   -0.4024   -0.2460 C.3       1 <0>         0.0000
     11 N1          1.2834   -0.0963    2.3415 N.4       1 <0>         0.0000
     12 H1          1.7035    2.1018   -0.3588 H         1 <0>         0.0000
     13 H2          1.1647    1.5804   -1.9566 H         1 <0>         0.0000
     14 H3          1.8346   -0.5879   -1.5203 H         1 <0>         0.0000
     15 H4          2.4548   -0.0933    0.0375 H         1 <0>         0.0000
     16 H5          0.3591    2.1268    1.5305 H         1 <0>         0.0000
     17 H6         -1.3200    1.5856    1.5566 H         1 <0>         0.0000
     18 H7         -0.9705    2.1665   -0.8254 H         1 <0>         0.0000
     19 H8         -0.6928   -0.5938    2.0453 H         1 <0>         0.0000
     20 H9         -0.5203   -2.6409    0.5773 H         1 <0>         0.0000
     21 H10         1.2499   -2.5644    0.6657 H         1 <0>         0.0000
     22 H11         0.4425   -2.6285   -0.9129 H         1 <0>         0.0000
     23 H12        -1.2151   -1.4150   -2.4053 H         1 <0>         0.0000
     24 H13         0.1409   -0.2967   -2.6461 H         1 <0>         0.0000
     25 H14        -1.5279    0.2944   -2.7629 H         1 <0>         0.0000
     26 H15        -2.5371   -1.4173   -0.5275 H         1 <0>         0.0000
     27 H16        -2.9810    0.2919   -0.6974 H         1 <0>         0.0000
     28 H17        -2.3070   -0.3017    0.8327 H         1 <0>         0.0000
     29 H18         1.1435   -0.7059    3.1568 H         1 <0>         0.0000
     30 H19         1.5068    0.8442    2.6908 H         1 <0>         0.0000
     31 H20         2.1057   -0.4425    1.8313 H         1 <0>         0.0000
@<TRIPOS>BOND
     1    1    2 1
     2    1    4 1
     3    2    6 1
     4    3    4 1
     5    3    5 1
     6    4    7 1
     7    5    6 1
     8    5   11 1
     9    6    7 1
    10    6    8 1
    11    7    9 1
    12    7   10 1
    13    1   12 1
    14    1   13 1
    15    2   14 1
    16    2   15 1
    17    3   16 1
    18    3   17 1
    19    4   18 1
    20    5   19 1
    21    8   20 1
    22    8   21 1
    23    8   22 1
    24    9   23 1
    25    9   24 1
    26    9   25 1
    27   10   26 1
    28   10   27 1
    29   10   28 1
    30   11   29 1
    31   11   30 1
    32   11   31 1
