@<TRIPOS>MOLECULE
*****
   30    32     0     0     0
SMALL
NO_CHARGES

@<TRIPOS>ATOM
      1 C1         -0.5125    0.7898   -0.5629 C.3       1 <0>         0.0000
      2 C2         -2.7177    1.8984   -1.0224 C.3       1 <0>         0.0000
      3 C3         -0.9910    1.7197   -2.8451 C.3       1 <0>         0.0000
      4 C4         -2.6069   -0.5841   -0.6775 C.3       1 <0>         0.0000
      5 C5         -0.8872   -0.7623   -2.4962 C.3       1 <0>         0.0000
      6 C6         -3.0924    0.3427   -2.9633 C.3       1 <0>         0.0000
      7 C7         -2.0185    0.7687   -0.2425 C.3       1 <0>         0.0000
      8 C8         -0.2861    0.5886   -2.0726 C.3       1 <0>         0.0000
      9 C9         -2.4969    1.6920   -2.5312 C.3       1 <0>         0.0000
     10 C10        -2.3949   -0.7915   -2.1886 C.3       1 <0>         0.0000
     11 N1         -3.1712    2.7844   -3.2770 N.4       1 <0>         0.0000
     12 O1         -2.9436   -2.0461   -2.5657 O.3       1 <0>         0.0000
     13 H1         -0.0758    1.7440   -0.2434 H         1 <0>         0.0000
     14 H2         -0.0000   -0.0001   -0.0001 H         1 <0>         0.0000
     15 H3         -3.7896    1.9027   -0.7862 H         1 <0>         0.0000
     16 H4         -2.3183    2.8698   -0.7035 H         1 <0>         0.0000
     17 H5         -0.5557    2.6871   -2.5634 H         1 <0>         0.0000
     18 H6         -0.8188    1.5952   -3.9220 H         1 <0>         0.0000
     19 H7         -2.1401   -1.4035   -0.1155 H         1 <0>         0.0000
     20 H8         -3.6770   -0.6311   -0.4371 H         1 <0>         0.0000
     21 H9         -0.7162   -0.9374   -3.5663 H         1 <0>         0.0000
     22 H10        -0.3813   -1.5868   -1.9773 H         1 <0>         0.0000
     23 H11        -4.1747    0.3105   -2.7784 H         1 <0>         0.0000
     24 H12        -2.9739    0.1871   -4.0442 H         1 <0>         0.0000
     25 H13        -2.1710    0.9114    0.8331 H         1 <0>         0.0000
     26 H14         0.7871    0.6028   -2.2920 H         1 <0>         0.0000
     27 H15        -2.4852    3.4388   -3.6671 H         1 <0>         0.0000
     28 H16        -3.7993    3.3127   -2.6624 H         1 <0>         0.0000
     29 H17        -3.7277    2.4089   -4.0520 H         1 <0>         0.0000
     30 H18        -2.7929   -2.1434   -3.5201 H         1 <0>         0.0000
@<TRIPOS>BOND
     1    1    7 1
     2    1    8 1
     3    2    7 1
     4    2    9 1
     5    3    8 1
     6    3    9 1
     7    4    7 1
     8    4   10 1
     9    5    8 1
    10    5   10 1
    11    6    9 1
    12    6   10 1
    13    9   11 1
    14   10   12 1
    15    1   13 1
    16    1   14 1
    17    2   15 1
    18    2   16 1
    19    3   17 1
    20    3   18 1
    21    4   19 1
    22    4   20 1
    23    5   21 1
    24    5   22 1
    25    6   23 1
    26    6   24 1
    27    7   25 1
    28    8   26 1
    29   11   27 1
    30   11   28 1
    31   11   29 1
    32   12   30 1
