@<TRIPOS>MOLECULE
*****
   24    23     0     0     0
SMALL
NO_CHARGES

@<TRIPOS>ATOM
      1 C1          0.0170    0.5337    0.0837 C.3       1 <0>         0.0000
      2 C2         -0.2508   -0.9216    0.4762 C.3       1 <0>         0.0000
      3 C3          1.5188    0.8320    0.0530 C.3       1 <0>         0.0000
      4 C4         -1.7532   -1.2104    0.5467 C.3       1 <0>         0.0000
      5 C5          1.8410    2.2881   -0.2593 C.3       1 <0>         0.0000
      6 C6         -2.0447   -2.6629    0.9033 C.3       1 <0>         0.0000
      7 N1          1.2559    3.1854    0.7643 N.4       1 <0>         0.0000
      8 O1         -3.4478   -2.8719    0.9742 O.3       1 <0>         0.0000
      9 H1         -0.4259    0.7265   -0.8999 H         1 <0>         0.0000
     10 H2         -0.4754    1.2029    0.7994 H         1 <0>         0.0000
     11 H3          0.2241   -1.5884   -0.2532 H         1 <0>         0.0000
     12 H4          0.2074   -1.1292    1.4508 H         1 <0>         0.0000
     13 H5          2.0092    0.1778   -0.6787 H         1 <0>         0.0000
     14 H6          1.9507    0.5899    1.0318 H         1 <0>         0.0000
     15 H7         -2.2194   -0.5577    1.2938 H         1 <0>         0.0000
     16 H8         -2.2044   -0.9790   -0.4260 H         1 <0>         0.0000
     17 H9          2.9184    2.4780   -0.2761 H         1 <0>         0.0000
     18 H10         1.4063    2.5853   -1.2182 H         1 <0>         0.0000
     19 H11        -1.6117   -2.9025    1.8796 H         1 <0>         0.0000
     20 H12        -1.6233   -3.3426    0.1557 H         1 <0>         0.0000
     21 H13         0.3171    3.4959    0.4894 H         1 <0>         0.0000
     22 H14         1.8371    4.0209    0.8971 H         1 <0>         0.0000
     23 H15         1.1772    2.7096    1.6702 H         1 <0>         0.0000
     24 H16        -3.5816   -3.8063    1.2028 H         1 <0>         0.0000
@<TRIPOS>BOND
     1    1    2 1
     2    1    3 1
     3    2    4 1
     4    3    5 1
     5    4    6 1
     6    5    7 1
     7    6    8 1
     8    1    9 1
     9    1   10 1
    10    2   11 1
    11    2   12 1
    12    3   13 1
    13    3   14 1
    14    4   15 1
    15    4   16 1
    16    5   17 1
    17    5   18 1
    18    6   19 1
    19    6   20 1
    20    7   21 1
    21    7   22 1
    22    7   23 1
    23    8   24 1
