@<TRIPOS>MOLECULE
*****
   24    24     0     0     0
SMALL
NO_CHARGES

@<TRIPOS>ATOM
      1 C1          0.5651    0.3703    0.8631 C.3       1 <0>         0.0000
      2 C2         -0.2714    1.4024    1.6132 C.3       1 <0>         0.0000
      3 C3          0.9569   -0.8066    1.7564 C.3       1 <0>         0.0000
      4 C4          0.4187    1.8781    2.8914 C.3       1 <0>         0.0000
      5 C5          1.6257   -0.3724    3.0645 C.3       1 <0>         0.0000
      6 C6          0.8562    0.7273    3.8030 C.3       1 <0>         0.0000
      7 N1          2.9975    0.1356    2.7550 N.4       1 <0>         0.0000
      8 N2         -0.3607    0.1189    4.4232 N.4       1 <0>         0.0000
      9 H1          0.0007   -0.0001   -0.0003 H         1 <0>         0.0000
     10 H2          1.4659    0.8505    0.4628 H         1 <0>         0.0000
     11 H3         -0.4615    2.2625    0.9607 H         1 <0>         0.0000
     12 H4         -1.2509    0.9736    1.8555 H         1 <0>         0.0000
     13 H5          0.0543   -1.3846    1.9914 H         1 <0>         0.0000
     14 H6          1.6150   -1.4833    1.1977 H         1 <0>         0.0000
     15 H7          1.3004    2.4697    2.6149 H         1 <0>         0.0000
     16 H8         -0.2486    2.5606    3.4320 H         1 <0>         0.0000
     17 H9          1.7841   -1.2436    3.7102 H         1 <0>         0.0000
     18 H10         1.4391    1.1182    4.6447 H         1 <0>         0.0000
     19 H11         3.6834   -0.2892    3.3814 H         1 <0>         0.0000
     20 H12         3.0346    1.1500    2.8713 H         1 <0>         0.0000
     21 H13         3.2514   -0.0913    1.7919 H         1 <0>         0.0000
     22 H14        -0.8993    0.8302    4.9206 H         1 <0>         0.0000
     23 H15        -0.0937   -0.6105    5.0869 H         1 <0>         0.0000
     24 H16        -0.9558   -0.2967    3.7044 H         1 <0>         0.0000
@<TRIPOS>BOND
     1    1    2 1
     2    1    3 1
     3    2    4 1
     4    3    5 1
     5    4    6 1
     6    5    6 1
     7    5    7 1
     8    6    8 1
     9    1    9 1
    10    1   10 1
    11    2   11 1
    12    2   12 1
    13    3   13 1
    14    3   14 1
    15    4   15 1
    16    4   16 1
    17    5   17 1
    18    6   18 1
    19    7   19 1
    20    7   20 1
    21    7   21 1
    22    8   22 1
    23    8   23 1
    24    8   24 1
