@<TRIPOS>MOLECULE
*****
   22    22     0     0     0
SMALL
NO_CHARGES

@<TRIPOS>ATOM
      1 C1          0.5756    1.0429   -0.8716 C.3       1 <0>         0.0000
      2 C2         -0.5874    0.3966    1.2914 C.3       1 <0>         0.0000
      3 C3          0.5863   -0.4269   -1.3012 C.3       1 <0>         0.0000
      4 C4         -0.5758   -1.0713    0.8548 C.3       1 <0>         0.0000
      5 C5          0.5243    1.2238    0.6456 C.3       1 <0>         0.0000
      6 C6         -0.5553   -1.2218   -0.6661 C.3       1 <0>         0.0000
      7 N1          1.8366    0.8265    1.2328 N.4       1 <0>         0.0000
      8 O1         -1.8044   -0.7698   -1.1858 O.3       1 <0>         0.0000
      9 H1          1.4537    1.5505   -1.2887 H         1 <0>         0.0000
     10 H2         -0.3018    1.5337   -1.3120 H         1 <0>         0.0000
     11 H3         -1.5546    0.8380    1.0192 H         1 <0>         0.0000
     12 H4         -0.5206    0.4519    2.3849 H         1 <0>         0.0000
     13 H5          0.5029   -0.4682   -2.3940 H         1 <0>         0.0000
     14 H6          1.5457   -0.8842   -1.0329 H         1 <0>         0.0000
     15 H7          0.2966   -1.5774    1.2843 H         1 <0>         0.0000
     16 H8         -1.4664   -1.5613    1.2661 H         1 <0>         0.0000
     17 H9          0.4014    2.2832    0.8961 H         1 <0>         0.0000
     18 H10        -0.4580   -2.2809   -0.9288 H         1 <0>         0.0000
     19 H11         1.6971    0.2393    2.0584 H         1 <0>         0.0000
     20 H12         2.3695    1.6539    1.5115 H         1 <0>         0.0000
     21 H13         2.3896    0.3004    0.5520 H         1 <0>         0.0000
     22 H14        -1.7731   -0.9168   -2.1435 H         1 <0>         0.0000
@<TRIPOS>BOND
     1    1    3 1
     2    1    5 1
     3    2    4 1
     4    2    5 1
     5    3    6 1
     6    4    6 1
     7    5    7 1
     8    6    8 1
     9    1    9 1
    10    1   10 1
    11    2   11 1
    12    2   12 1
    13    3   13 1
    14    3   14 1
    15    4   15 1
    16    4   16 1
    17    5   17 1
    18    6   18 1
    19    7   19 1
    20    7   20 1
    21    7   21 1
    22    8   22 1
