@<TRIPOS>MOLECULE
*****
   21    21     0     0     0
SMALL
NO_CHARGES

@<TRIPOS>ATOM
      1 C1         -0.5747    0.8755   -0.3269 C.3       1 <0>         0.0000
      2 C2         -1.9269    0.4191   -0.8673 C.3       1 <0>         0.0000
      3 C3         -0.7269    1.8452    0.8415 C.3       1 <0>         0.0000
      4 C4         -2.8057   -0.1717    0.2351 C.3       1 <0>         0.0000
      5 C5         -1.6003    1.2597    1.9511 C.3       1 <0>         0.0000
      6 C6         -2.9508    0.7502    1.4463 C.3       1 <0>         0.0000
      7 N1         -3.8091    1.9136    1.0788 N.4       1 <0>         0.0000
      8 H1         -0.0001    0.0002    0.0005 H         1 <0>         0.0000
      9 H2          0.0004    1.3519   -1.1288 H         1 <0>         0.0000
     10 H3         -2.4382    1.2655   -1.3407 H         1 <0>         0.0000
     11 H4         -1.7733   -0.3314   -1.6513 H         1 <0>         0.0000
     12 H5          0.2628    2.0881    1.2454 H         1 <0>         0.0000
     13 H6         -1.1579    2.7875    0.4832 H         1 <0>         0.0000
     14 H7         -3.7903   -0.4233   -0.1773 H         1 <0>         0.0000
     15 H8         -2.3574   -1.1168    0.5678 H         1 <0>         0.0000
     16 H9         -1.0621    0.4215    2.4123 H         1 <0>         0.0000
     17 H10        -1.7424    2.0085    2.7396 H         1 <0>         0.0000
     18 H11        -3.4856    0.2357    2.2519 H         1 <0>         0.0000
     19 H12        -3.2424    2.7584    0.9734 H         1 <0>         0.0000
     20 H13        -4.5108    2.0840    1.8032 H         1 <0>         0.0000
     21 H14        -4.2933    1.7373    0.1953 H         1 <0>         0.0000
@<TRIPOS>BOND
     1    1    2 1
     2    1    3 1
     3    2    4 1
     4    3    5 1
     5    4    6 1
     6    5    6 1
     7    6    7 1
     8    1    8 1
     9    1    9 1
    10    2   10 1
    11    2   11 1
    12    3   12 1
    13    3   13 1
    14    4   14 1
    15    4   15 1
    16    5   16 1
    17    5   17 1
    18    6   18 1
    19    7   19 1
    20    7   20 1
    21    7   21 1
