@<TRIPOS>MOLECULE
*****
   24    24     0     0     0
SMALL
NO_CHARGES

@<TRIPOS>ATOM
      1 C1         -0.7694   -1.7020   -1.0476 C.3       1 <0>         0.0000
      2 C2         -0.4529   -0.2135   -0.9773 C.3       1 <0>         0.0000
      3 C3         -0.8696   -2.2210   -2.4803 C.3       1 <0>         0.0000
      4 C4         -1.6338    0.7374   -1.1530 C.3       1 <0>         0.0000
      5 C5         -2.1820   -1.9004   -3.1885 C.3       1 <0>         0.0000
      6 C6         -2.8348    0.2608   -1.9668 C.3       1 <0>         0.0000
      7 C7         -2.5752   -0.4284   -3.3046 C.3       1 <0>         0.0000
      8 N1         -1.5746    0.3198   -4.1052 N.4       1 <0>         0.0000
      9 H1          0.0259   -2.2416   -0.5399 H         1 <0>         0.0000
     10 H2         -1.6939   -1.9043   -0.5148 H         1 <0>         0.0000
     11 H3          0.0064   -0.0138    0.0040 H         1 <0>         0.0000
     12 H4          0.3256    0.0262   -1.7192 H         1 <0>         0.0000
     13 H5          0.0009   -1.8876   -3.0771 H         1 <0>         0.0000
     14 H6         -0.7779   -3.3231   -2.4320 H         1 <0>         0.0000
     15 H7         -1.9703    1.1263   -0.1526 H         1 <0>         0.0000
     16 H8         -1.2357    1.6565   -1.6582 H         1 <0>         0.0000
     17 H9         -2.1491   -2.3443   -4.2025 H         1 <0>         0.0000
     18 H10        -3.0042   -2.4458   -2.6860 H         1 <0>         0.0000
     19 H11        -3.4145   -0.4516   -1.3351 H         1 <0>         0.0000
     20 H12        -3.5411    1.1150   -2.0996 H         1 <0>         0.0000
     21 H13        -3.5145   -0.3907   -3.9050 H         1 <0>         0.0000
     22 H14        -1.9123    1.2630   -4.3016 H         1 <0>         0.0000
     23 H15        -1.4035   -0.1572   -4.9917 H         1 <0>         0.0000
     24 H16        -0.6927    0.3879   -3.5951 H         1 <0>         0.0000
@<TRIPOS>BOND
     1    1    2 1
     2    1    3 1
     3    2    4 1
     4    3    5 1
     5    4    6 1
     6    5    7 1
     7    6    7 1
     8    7    8 1
     9    1    9 1
    10    1   10 1
    11    2   11 1
    12    2   12 1
    13    3   13 1
    14    3   14 1
    15    4   15 1
    16    4   16 1
    17    5   17 1
    18    5   18 1
    19    6   19 1
    20    6   20 1
    21    7   21 1
    22    8   22 1
    23    8   23 1
    24    8   24 1
