@<TRIPOS>MOLECULE
*****
   27    27     0     0     0
SMALL
NO_CHARGES

@<TRIPOS>ATOM
      1 C1         -0.2962    0.8865   -0.5713 C.3       1 <0>         0.0000
      2 C2         -0.0946    0.6835   -2.0735 C.3       1 <0>         0.0000
      3 C3         -1.7013    1.3421   -0.1720 C.3       1 <0>         0.0000
      4 C4         -0.0911   -0.7733   -2.5349 C.3       1 <0>         0.0000
      5 C5         -2.8300    0.3227   -0.3423 C.3       1 <0>         0.0000
      6 C6         -1.1851   -1.6892   -1.9879 C.3       1 <0>         0.0000
      7 C7         -3.1803    0.0032   -1.7969 C.3       1 <0>         0.0000
      8 C8         -2.6388   -1.3353   -2.3051 C.3       1 <0>         0.0000
      9 N1         -2.8454   -1.3829   -3.7833 N.4       1 <0>         0.0000
     10 H1          0.0000    0.0001    0.0001 H         1 <0>         0.0000
     11 H2          0.3904    1.6833   -0.2546 H         1 <0>         0.0000
     12 H3         -0.8127    1.2706   -2.6538 H         1 <0>         0.0000
     13 H4          0.8865    1.0988   -2.3416 H         1 <0>         0.0000
     14 H5         -1.6673    1.6200    0.8896 H         1 <0>         0.0000
     15 H6         -1.9547    2.2622   -0.7137 H         1 <0>         0.0000
     16 H7         -0.1004   -0.7944   -3.6313 H         1 <0>         0.0000
     17 H8          0.8726   -1.2128   -2.2437 H         1 <0>         0.0000
     18 H9         -2.6224   -0.5858    0.2334 H         1 <0>         0.0000
     19 H10        -3.7226    0.7664    0.1192 H         1 <0>         0.0000
     20 H11        -0.9896   -2.6952   -2.3859 H         1 <0>         0.0000
     21 H12        -1.0641   -1.7974   -0.9045 H         1 <0>         0.0000
     22 H13        -4.2762   -0.0493   -1.8694 H         1 <0>         0.0000
     23 H14        -2.9019    0.8325   -2.4558 H         1 <0>         0.0000
     24 H15        -3.2719   -2.1375   -1.9062 H         1 <0>         0.0000
     25 H16        -2.0768   -1.8824   -4.2355 H         1 <0>         0.0000
     26 H17        -2.8877   -0.4367   -4.1681 H         1 <0>         0.0000
     27 H18        -3.7199   -1.8630   -4.0064 H         1 <0>         0.0000
@<TRIPOS>BOND
     1    1    2 1
     2    1    3 1
     3    2    4 1
     4    3    5 1
     5    4    6 1
     6    5    7 1
     7    6    8 1
     8    7    8 1
     9    8    9 1
    10    1   10 1
    11    1   11 1
    12    2   12 1
    13    2   13 1
    14    3   14 1
    15    3   15 1
    16    4   16 1
    17    4   17 1
    18    5   18 1
    19    5   19 1
    20    6   20 1
    21    6   21 1
    22    7   22 1
    23    7   23 1
    24    8   24 1
    25    9   25 1
    26    9   26 1
    27    9   27 1
