@<TRIPOS>MOLECULE
*****
   14    14     0     0     0
SMALL
NO_CHARGES

@<TRIPOS>ATOM
      1 C1          1.8851   -1.0363   -0.1124 C.ar      1 <0>         0.0000
      2 C2          0.8066   -0.4630    0.5610 C.ar      1 <0>         0.0000
      3 C3          2.9210   -1.6309    0.6081 C.ar      1 <0>         0.0000
      4 C4          0.7638   -0.4841    1.9551 C.ar      1 <0>         0.0000
      5 C5          2.8783   -1.6520    2.0022 C.ar      1 <0>         0.0000
      6 C6          1.7997   -1.0786    2.6757 C.ar      1 <0>         0.0000
      7 C7          1.7537   -1.1018    4.1468 C.2       1 <0>         0.0000
      8 O1          2.7225   -1.6571    4.7883 O.co2     1 <0>         0.0000
      9 O2          0.7460   -0.5663    4.7437 O.co2     1 <0>         0.0000
     10 H1          1.9180   -1.0205   -1.1979 H         1 <0>         0.0000
     11 H2          0.0005   -0.0001   -0.0009 H         1 <0>         0.0000
     12 H3          3.7607   -2.0768    0.0830 H         1 <0>         0.0000
     13 H4         -0.0811   -0.0344    2.4703 H         1 <0>         0.0000
     14 H5          3.6905   -2.1176    2.5545 H         1 <0>         0.0000
@<TRIPOS>BOND
     1    1    2 ar
     2    1    3 ar
     3    2    4 ar
     4    3    5 ar
     5    4    6 ar
     6    5    6 ar
     7    6    7 1
     8    7    8 1
     9    7    9 2
    10    1   10 1
    11    2   11 1
    12    3   12 1
    13    4   13 1
    14    5   14 1
