@<TRIPOS>MOLECULE
*****
   20    20     0     0     0
SMALL
NO_CHARGES

@<TRIPOS>ATOM
      1 C1          1.8851   -1.0363   -0.1124 C.ar      1 <0>         0.0000
      2 C2          2.8783   -1.6520    2.0022 C.ar      1 <0>         0.0000
      3 C3          0.8066   -0.4630    0.5610 C.ar      1 <0>         0.0000
      4 C4          1.7997   -1.0786    2.6757 C.ar      1 <0>         0.0000
      5 C5          2.9210   -1.6309    0.6081 C.ar      1 <0>         0.0000
      6 C6          0.7638   -0.4841    1.9551 C.ar      1 <0>         0.0000
      7 C7          4.0584   -2.2362   -0.1030 C.2       1 <0>         0.0000
      8 C8         -0.1539    1.6066    2.9910 C.3       1 <0>         0.0000
      9 C9         -0.3883    0.1318    2.6741 C.3       1 <0>         0.0000
     10 O1          5.0023   -2.7785    0.5853 O.co2     1 <0>         0.0000
     11 O2          4.0730   -2.2035   -1.3905 O.co2     1 <0>         0.0000
     12 H1          1.9087   -1.0146   -1.1991 H         1 <0>         0.0000
     13 H2          3.6803   -2.1128    2.5726 H         1 <0>         0.0000
     14 H3          0.0042   -0.0023   -0.0092 H         1 <0>         0.0000
     15 H4          1.7748   -1.0998    3.7619 H         1 <0>         0.0000
     16 H5          0.7569    1.7409    3.5843 H         1 <0>         0.0000
     17 H6         -0.9931    2.0189    3.5599 H         1 <0>         0.0000
     18 H7         -0.0460    2.1933    2.0724 H         1 <0>         0.0000
     19 H8         -1.3099    0.0340    2.0780 H         1 <0>         0.0000
     20 H9         -0.5898   -0.4101    3.6123 H         1 <0>         0.0000
@<TRIPOS>BOND
     1    1    3 ar
     2    1    5 ar
     3    2    4 ar
     4    2    5 ar
     5    3    6 ar
     6    4    6 ar
     7    5    7 1
     8    6    9 1
     9    7   10 1
    10    7   11 2
    11    8    9 1
    12    1   12 1
    13    2   13 1
    14    3   14 1
    15    4   15 1
    16    8   16 1
    17    8   17 1
    18    8   18 1
    19    9   19 1
    20    9   20 1
