@<TRIPOS>MOLECULE
*****
   14    14     0     0     0
SMALL
NO_CHARGES

@<TRIPOS>ATOM
      1 C1          1.8851   -1.0363   -0.1124 C.ar      1 <0>         0.0000
      2 C2          0.8066   -0.4630    0.5610 C.ar      1 <0>         0.0000
      3 C3          2.9210   -1.6309    0.6081 C.ar      1 <0>         0.0000
      4 C4          1.7997   -1.0786    2.6757 C.ar      1 <0>         0.0000
      5 C5          0.7638   -0.4841    1.9551 C.ar      1 <0>         0.0000
      6 C6          2.8783   -1.6520    2.0022 C.ar      1 <0>         0.0000
      7 C7         -0.3746    0.1211    2.6652 C.2       1 <0>         0.0000
      8 O1         -0.3903    0.0881    3.9525 O.co2     1 <0>         0.0000
      9 O2         -1.3175    0.6634    1.9758 O.co2     1 <0>         0.0000
     10 Cl1         4.1568   -2.3850    2.8908 Cl        1 <0>         0.0000
     11 H1          1.9181   -1.0204   -1.1981 H         1 <0>         0.0000
     12 H2          0.0044   -0.0026   -0.0104 H         1 <0>         0.0000
     13 H3          3.7551   -2.0737    0.0697 H         1 <0>         0.0000
     14 H4          1.7628   -1.0931    3.7627 H         1 <0>         0.0000
@<TRIPOS>BOND
     1    1    2 ar
     2    1    3 ar
     3    2    5 ar
     4    3    6 ar
     5    4    5 ar
     6    4    6 ar
     7    5    7 1
     8    6   10 1
     9    7    8 1
    10    7    9 2
    11    1   11 1
    12    2   12 1
    13    3   13 1
    14    4   14 1
