@<TRIPOS>MOLECULE
*****
   20    20     0     0     0
SMALL
NO_CHARGES

@<TRIPOS>ATOM
      1 C1         -0.9221    0.2617   -0.5381 C.2       1 <0>         0.0000
      2 C2         -3.6084   -2.8787   -1.7939 C.3       1 <0>         0.0000
      3 C3         -2.1232   -3.2080   -1.6774 C.3       1 <0>         0.0000
      4 C4         -3.8300   -1.4772   -2.3548 C.3       1 <0>         0.0000
      5 C5         -1.3753   -2.1559   -0.8628 C.3       1 <0>         0.0000
      6 C6         -3.0859   -0.4210   -1.5420 C.3       1 <0>         0.0000
      7 C7         -1.5959   -0.7476   -1.4194 C.3       1 <0>         0.0000
      8 O1         -1.3442    0.3065    0.6507 O.co2     1 <0>         0.0000
      9 O2         -0.0169    0.9376   -1.1028 O.co2     1 <0>         0.0000
     10 H1         -4.0968   -3.6152   -2.4440 H         1 <0>         0.0000
     11 H2         -4.0812   -2.9598   -0.8085 H         1 <0>         0.0000
     12 H3         -2.0047   -4.1909   -1.2075 H         1 <0>         0.0000
     13 H4         -1.6833   -3.2791   -2.6777 H         1 <0>         0.0000
     14 H5         -3.4908   -1.4425   -3.3964 H         1 <0>         0.0000
     15 H6         -4.9034   -1.2541   -2.3666 H         1 <0>         0.0000
     16 H7         -1.6882   -2.2154    0.1787 H         1 <0>         0.0000
     17 H8         -0.3088   -2.3806   -0.8988 H         1 <0>         0.0000
     18 H9         -3.1949    0.5464   -2.0359 H         1 <0>         0.0000
     19 H10        -3.5404   -0.3389   -0.5540 H         1 <0>         0.0000
     20 H11        -1.1315   -0.6714   -2.4046 H         1 <0>         0.0000
@<TRIPOS>BOND
     1    1    7 1
     2    1    8 1
     3    1    9 2
     4    2    3 1
     5    2    4 1
     6    3    5 1
     7    4    6 1
     8    5    7 1
     9    6    7 1
    10    2   10 1
    11    2   11 1
    12    3   12 1
    13    3   13 1
    14    4   14 1
    15    4   15 1
    16    5   16 1
    17    5   17 1
    18    6   18 1
    19    6   19 1
    20    7   20 1
@<TRIPOS>MOLECULE
*****
   20    20     0     0     0
SMALL
NO_CHARGES

@<TRIPOS>ATOM
      1 C1         -0.9221    0.2617   -0.5381 C.2       1 <0>         0.0000
      2 C2         -3.6084   -2.8787   -1.7939 C.3       1 <0>         0.0000
      3 C3         -2.1232   -3.2080   -1.6774 C.3       1 <0>         0.0000
      4 C4         -3.8300   -1.4772   -2.3548 C.3       1 <0>         0.0000
      5 C5         -1.3753   -2.1559   -0.8628 C.3       1 <0>         0.0000
      6 C6         -3.0859   -0.4210   -1.5420 C.3       1 <0>         0.0000
      7 C7         -1.5959   -0.7476   -1.4194 C.3       1 <0>         0.0000
      8 O1          0.0937   -0.1575    0.0829 O.co2     1 <0>         0.0000
      9 O2         -1.4614    1.4038   -0.5323 O.co2     1 <0>         0.0000
     10 H1         -4.0968   -3.6152   -2.4440 H         1 <0>         0.0000
     11 H2         -4.0812   -2.9598   -0.8085 H         1 <0>         0.0000
     12 H3         -2.0047   -4.1909   -1.2075 H         1 <0>         0.0000
     13 H4         -1.6833   -3.2791   -2.6777 H         1 <0>         0.0000
     14 H5         -3.4908   -1.4425   -3.3964 H         1 <0>         0.0000
     15 H6         -4.9034   -1.2541   -2.3666 H         1 <0>         0.0000
     16 H7         -1.6882   -2.2154    0.1787 H         1 <0>         0.0000
     17 H8         -0.3088   -2.3806   -0.8988 H         1 <0>         0.0000
     18 H9         -3.1949    0.5464   -2.0359 H         1 <0>         0.0000
     19 H10        -3.5404   -0.3389   -0.5540 H         1 <0>         0.0000
     20 H11        -1.1315   -0.6714   -2.4046 H         1 <0>         0.0000
@<TRIPOS>BOND
     1    1    7 1
     2    1    8 1
     3    1    9 2
     4    2    3 1
     5    2    4 1
     6    3    5 1
     7    4    6 1
     8    5    7 1
     9    6    7 1
    10    2   10 1
    11    2   11 1
    12    3   12 1
    13    3   13 1
    14    4   14 1
    15    4   15 1
    16    5   16 1
    17    5   17 1
    18    6   18 1
    19    6   19 1
    20    7   20 1
@<TRIPOS>MOLECULE
*****
   20    20     0     0     0
SMALL
NO_CHARGES

@<TRIPOS>ATOM
      1 C1          0.7296   -0.4754   -0.6707 C.2       1 <0>         0.0000
      2 C2          2.9486   -3.1872   -2.0644 C.3       1 <0>         0.0000
      3 C3          2.3702   -2.0527   -2.9021 C.3       1 <0>         0.0000
      4 C4          2.5978   -3.0262   -0.5898 C.3       1 <0>         0.0000
      5 C5          0.8603   -1.9147   -2.7094 C.3       1 <0>         0.0000
      6 C6          1.0887   -2.9170   -0.3777 C.3       1 <0>         0.0000
      7 C7          0.4389   -1.8334   -1.2408 C.3       1 <0>         0.0000
      8 O1          0.7250    0.4717   -1.5050 O.co2     1 <0>         0.0000
      9 O2          0.9417   -0.4579    0.5743 O.co2     1 <0>         0.0000
     10 H1          2.5631   -4.1466   -2.4306 H         1 <0>         0.0000
     11 H2          4.0376   -3.2140   -2.1834 H         1 <0>         0.0000
     12 H3          2.8626   -1.1111   -2.6301 H         1 <0>         0.0000
     13 H4          2.5892   -2.2286   -3.9616 H         1 <0>         0.0000
     14 H5          2.9839   -3.8828   -0.0255 H         1 <0>         0.0000
     15 H6          3.0972   -2.1359   -0.1897 H         1 <0>         0.0000
     16 H7          0.5065   -1.0366   -3.2636 H         1 <0>         0.0000
     17 H8          0.3717   -2.7867   -3.1632 H         1 <0>         0.0000
     18 H9          0.6285   -3.8833   -0.6204 H         1 <0>         0.0000
     19 H10         0.8874   -2.7295    0.6839 H         1 <0>         0.0000
     20 H11        -0.6617   -1.9595   -1.1810 H         1 <0>         0.0000
@<TRIPOS>BOND
     1    1    7 1
     2    1    8 1
     3    1    9 2
     4    2    3 1
     5    2    4 1
     6    3    5 1
     7    4    6 1
     8    5    7 1
     9    6    7 1
    10    2   10 1
    11    2   11 1
    12    3   12 1
    13    3   13 1
    14    4   14 1
    15    4   15 1
    16    5   16 1
    17    5   17 1
    18    6   18 1
    19    6   19 1
    20    7   20 1
@<TRIPOS>MOLECULE
*****
   20    20     0     0     0
SMALL
NO_CHARGES

@<TRIPOS>ATOM
      1 C1          0.7296   -0.4754   -0.6707 C.2       1 <0>         0.0000
      2 C2          2.9486   -3.1872   -2.0644 C.3       1 <0>         0.0000
      3 C3          2.3702   -2.0527   -2.9021 C.3       1 <0>         0.0000
      4 C4          2.5978   -3.0262   -0.5898 C.3       1 <0>         0.0000
      5 C5          0.8603   -1.9147   -2.7094 C.3       1 <0>         0.0000
      6 C6          1.0887   -2.9170   -0.3777 C.3       1 <0>         0.0000
      7 C7          0.4389   -1.8334   -1.2408 C.3       1 <0>         0.0000
      8 O1          1.9484   -0.1475   -0.6535 O.co2     1 <0>         0.0000
      9 O2         -0.2874    0.1642   -0.2810 O.co2     1 <0>         0.0000
     10 H1          2.5631   -4.1466   -2.4306 H         1 <0>         0.0000
     11 H2          4.0376   -3.2140   -2.1834 H         1 <0>         0.0000
     12 H3          2.8626   -1.1111   -2.6301 H         1 <0>         0.0000
     13 H4          2.5892   -2.2286   -3.9616 H         1 <0>         0.0000
     14 H5          2.9839   -3.8828   -0.0255 H         1 <0>         0.0000
     15 H6          3.0972   -2.1359   -0.1897 H         1 <0>         0.0000
     16 H7          0.5065   -1.0366   -3.2636 H         1 <0>         0.0000
     17 H8          0.3717   -2.7867   -3.1632 H         1 <0>         0.0000
     18 H9          0.6285   -3.8833   -0.6204 H         1 <0>         0.0000
     19 H10         0.8874   -2.7295    0.6839 H         1 <0>         0.0000
     20 H11        -0.6617   -1.9595   -1.1810 H         1 <0>         0.0000
@<TRIPOS>BOND
     1    1    7 1
     2    1    8 1
     3    1    9 2
     4    2    3 1
     5    2    4 1
     6    3    5 1
     7    4    6 1
     8    5    7 1
     9    6    7 1
    10    2   10 1
    11    2   11 1
    12    3   12 1
    13    3   13 1
    14    4   14 1
    15    4   15 1
    16    5   16 1
    17    5   17 1
    18    6   18 1
    19    6   19 1
    20    7   20 1
