@<TRIPOS>MOLECULE
*****
   23    23     0     0     0
SMALL
NO_CHARGES

@<TRIPOS>ATOM
      1 C1          0.8944   -0.4050   -0.4940 C.2       1 <0>         0.0000
      2 C2          0.5628   -2.8465   -0.6385 C.3       1 <0>         0.0000
      3 C3         -0.3593   -1.3177   -2.4260 C.3       1 <0>         0.0000
      4 C4          0.3477   -4.0488   -1.5554 C.3       1 <0>         0.0000
      5 C5         -0.5729   -2.5191   -3.3442 C.3       1 <0>         0.0000
      6 C6          0.7815   -1.5621   -1.4383 C.3       1 <0>         0.0000
      7 C7         -0.8006   -3.8091   -2.5448 C.3       1 <0>         0.0000
      8 C8         -0.9621   -5.0035   -3.4832 C.3       1 <0>         0.0000
      9 O1         -0.1257   -0.1879    0.2170 O.co2     1 <0>         0.0000
     10 O2          2.0000    0.2044   -0.5329 O.co2     1 <0>         0.0000
     11 H1         -0.3051   -2.7404    0.0258 H         1 <0>         0.0000
     12 H2          1.4265   -3.0328    0.0117 H         1 <0>         0.0000
     13 H3         -0.1447   -0.4285   -3.0314 H         1 <0>         0.0000
     14 H4         -1.2924   -1.1057   -1.8872 H         1 <0>         0.0000
     15 H5          1.2764   -4.2536   -2.1033 H         1 <0>         0.0000
     16 H6          0.1372   -4.9354   -0.9455 H         1 <0>         0.0000
     17 H7         -1.4329   -2.3273   -3.9969 H         1 <0>         0.0000
     18 H8          0.3019   -2.6334   -3.9973 H         1 <0>         0.0000
     19 H9          1.7410   -1.6517   -2.0079 H         1 <0>         0.0000
     20 H10        -1.7320   -3.7009   -1.9731 H         1 <0>         0.0000
     21 H11        -0.0532   -5.1394   -4.0669 H         1 <0>         0.0000
     22 H12        -1.7978   -4.8311   -4.1591 H         1 <0>         0.0000
     23 H13        -1.1520   -5.9051   -2.9033 H         1 <0>         0.0000
@<TRIPOS>BOND
     1    1    6 1
     2    1    9 1
     3    1   10 2
     4    2    4 1
     5    2    6 1
     6    3    5 1
     7    3    6 1
     8    4    7 1
     9    5    7 1
    10    7    8 1
    11    2   11 1
    12    2   12 1
    13    3   13 1
    14    3   14 1
    15    4   15 1
    16    4   16 1
    17    5   17 1
    18    5   18 1
    19    6   19 1
    20    7   20 1
    21    8   21 1
    22    8   22 1
    23    8   23 1
@<TRIPOS>MOLECULE
*****
   23    23     0     0     0
SMALL
NO_CHARGES

@<TRIPOS>ATOM
      1 C1          0.8944   -0.4050   -0.4940 C.2       1 <0>         0.0000
      2 C2          0.5628   -2.8465   -0.6385 C.3       1 <0>         0.0000
      3 C3         -0.3593   -1.3177   -2.4260 C.3       1 <0>         0.0000
      4 C4          0.3477   -4.0488   -1.5554 C.3       1 <0>         0.0000
      5 C5         -0.5729   -2.5191   -3.3442 C.3       1 <0>         0.0000
      6 C6          0.7815   -1.5621   -1.4383 C.3       1 <0>         0.0000
      7 C7         -0.8006   -3.8091   -2.5448 C.3       1 <0>         0.0000
      8 C8         -0.9621   -5.0035   -3.4832 C.3       1 <0>         0.0000
      9 O1          1.3474   -0.6853    0.6503 O.co2     1 <0>         0.0000
     10 O2          0.5201    0.7041   -0.9681 O.co2     1 <0>         0.0000
     11 H1         -0.3051   -2.7404    0.0258 H         1 <0>         0.0000
     12 H2          1.4265   -3.0328    0.0117 H         1 <0>         0.0000
     13 H3         -0.1447   -0.4285   -3.0314 H         1 <0>         0.0000
     14 H4         -1.2924   -1.1057   -1.8872 H         1 <0>         0.0000
     15 H5          1.2764   -4.2536   -2.1033 H         1 <0>         0.0000
     16 H6          0.1372   -4.9354   -0.9455 H         1 <0>         0.0000
     17 H7         -1.4329   -2.3273   -3.9969 H         1 <0>         0.0000
     18 H8          0.3019   -2.6334   -3.9973 H         1 <0>         0.0000
     19 H9          1.7410   -1.6517   -2.0079 H         1 <0>         0.0000
     20 H10        -1.7320   -3.7009   -1.9731 H         1 <0>         0.0000
     21 H11        -0.0532   -5.1394   -4.0669 H         1 <0>         0.0000
     22 H12        -1.7978   -4.8311   -4.1591 H         1 <0>         0.0000
     23 H13        -1.1520   -5.9051   -2.9033 H         1 <0>         0.0000
@<TRIPOS>BOND
     1    1    6 1
     2    1    9 1
     3    1   10 2
     4    2    4 1
     5    2    6 1
     6    3    5 1
     7    3    6 1
     8    4    7 1
     9    5    7 1
    10    7    8 1
    11    2   11 1
    12    2   12 1
    13    3   13 1
    14    3   14 1
    15    4   15 1
    16    4   16 1
    17    5   17 1
    18    5   18 1
    19    6   19 1
    20    7   20 1
    21    8   21 1
    22    8   22 1
    23    8   23 1
@<TRIPOS>MOLECULE
*****
   23    23     0     0     0
SMALL
NO_CHARGES

@<TRIPOS>ATOM
      1 C1          1.0403   -0.3470    0.0609 C.2       1 <0>         0.0000
      2 C2          1.1510   -2.7442   -0.5786 C.3       1 <0>         0.0000
      3 C3          1.1922   -0.9226   -2.3645 C.3       1 <0>         0.0000
      4 C4         -0.3077   -3.0356   -0.9332 C.3       1 <0>         0.0000
      5 C5         -0.2627   -1.2460   -2.7094 C.3       1 <0>         0.0000
      6 C6          1.5849   -1.3233   -0.9415 C.3       1 <0>         0.0000
      7 C7         -0.6559   -2.6929   -2.3870 C.3       1 <0>         0.0000
      8 C8         -0.0283   -3.6838   -3.3708 C.3       1 <0>         0.0000
      9 O1          0.8249   -0.8193    1.2114 O.co2     1 <0>         0.0000
     10 O2          0.8681    0.8241   -0.3798 O.co2     1 <0>         0.0000
     11 H1          1.3001   -2.9250    0.5011 H         1 <0>         0.0000
     12 H2          1.8021   -3.4743   -1.0896 H         1 <0>         0.0000
     13 H3          1.8577   -1.4253   -3.0896 H         1 <0>         0.0000
     14 H4          1.3637    0.1599   -2.5166 H         1 <0>         0.0000
     15 H5         -0.5157   -4.1027   -0.7407 H         1 <0>         0.0000
     16 H6         -0.9634   -2.4716   -0.2485 H         1 <0>         0.0000
     17 H7         -0.9240   -0.5490   -2.1660 H         1 <0>         0.0000
     18 H8         -0.4291   -1.0434   -3.7828 H         1 <0>         0.0000
     19 H9          2.7237   -1.2807   -0.8686 H         1 <0>         0.0000
     20 H10        -1.7590   -2.7721   -2.4952 H         1 <0>         0.0000
     21 H11         1.0570   -3.6389   -3.2977 H         1 <0>         0.0000
     22 H12        -0.3280   -3.4343   -4.3872 H         1 <0>         0.0000
     23 H13        -0.3602   -4.6944   -3.1386 H         1 <0>         0.0000
@<TRIPOS>BOND
     1    1    6 1
     2    1    9 1
     3    1   10 2
     4    2    4 1
     5    2    6 1
     6    3    5 1
     7    3    6 1
     8    4    7 1
     9    5    7 1
    10    7    8 1
    11    2   11 1
    12    2   12 1
    13    3   13 1
    14    3   14 1
    15    4   15 1
    16    4   16 1
    17    5   17 1
    18    5   18 1
    19    6   19 1
    20    7   20 1
    21    8   21 1
    22    8   22 1
    23    8   23 1
@<TRIPOS>MOLECULE
*****
   23    23     0     0     0
SMALL
NO_CHARGES

@<TRIPOS>ATOM
      1 C1          1.0403   -0.3470    0.0609 C.2       1 <0>         0.0000
      2 C2          1.1510   -2.7442   -0.5786 C.3       1 <0>         0.0000
      3 C3          1.1922   -0.9226   -2.3645 C.3       1 <0>         0.0000
      4 C4         -0.3077   -3.0356   -0.9332 C.3       1 <0>         0.0000
      5 C5         -0.2627   -1.2460   -2.7094 C.3       1 <0>         0.0000
      6 C6          1.5849   -1.3233   -0.9415 C.3       1 <0>         0.0000
      7 C7         -0.6559   -2.6929   -2.3870 C.3       1 <0>         0.0000
      8 C8         -0.0283   -3.6838   -3.3708 C.3       1 <0>         0.0000
      9 O1         -0.2186   -0.2699    0.1094 O.co2     1 <0>         0.0000
     10 O2          1.9165    0.2722    0.7273 O.co2     1 <0>         0.0000
     11 H1          1.3001   -2.9250    0.5011 H         1 <0>         0.0000
     12 H2          1.8021   -3.4743   -1.0896 H         1 <0>         0.0000
     13 H3          1.8577   -1.4253   -3.0896 H         1 <0>         0.0000
     14 H4          1.3637    0.1599   -2.5166 H         1 <0>         0.0000
     15 H5         -0.5157   -4.1027   -0.7407 H         1 <0>         0.0000
     16 H6         -0.9634   -2.4716   -0.2485 H         1 <0>         0.0000
     17 H7         -0.9240   -0.5490   -2.1660 H         1 <0>         0.0000
     18 H8         -0.4291   -1.0434   -3.7828 H         1 <0>         0.0000
     19 H9          2.7237   -1.2807   -0.8686 H         1 <0>         0.0000
     20 H10        -1.7590   -2.7721   -2.4952 H         1 <0>         0.0000
     21 H11         1.0570   -3.6389   -3.2977 H         1 <0>         0.0000
     22 H12        -0.3280   -3.4343   -4.3872 H         1 <0>         0.0000
     23 H13        -0.3602   -4.6944   -3.1386 H         1 <0>         0.0000
@<TRIPOS>BOND
     1    1    6 1
     2    1    9 1
     3    1   10 2
     4    2    4 1
     5    2    6 1
     6    3    5 1
     7    3    6 1
     8    4    7 1
     9    5    7 1
    10    7    8 1
    11    2   11 1
    12    2   12 1
    13    3   13 1
    14    3   14 1
    15    4   15 1
    16    4   16 1
    17    5   17 1
    18    5   18 1
    19    6   19 1
    20    7   20 1
    21    8   21 1
    22    8   22 1
    23    8   23 1
