@<TRIPOS>MOLECULE
*****
   17    17     0     0     0
SMALL
NO_CHARGES

@<TRIPOS>ATOM
      1 C1          0.1646   -1.1210   -0.1500 C.2       1 <0>         0.0000
      2 C2          1.6889   -3.9830   -0.2485 C.3       1 <0>         0.0000
      3 C3          1.0763   -4.2748    1.1096 C.3       1 <0>         0.0000
      4 C4          2.1800   -2.5494   -0.1026 C.3       1 <0>         0.0000
      5 C5          0.3682   -2.9772    1.4864 C.3       1 <0>         0.0000
      6 C6          1.1244   -1.8651    0.7605 C.3       1 <0>         0.0000
      7 O1         -0.4272   -1.8338   -1.0073 O.co2     1 <0>         0.0000
      8 O2          0.0818    0.1202    0.0686 O.co2     1 <0>         0.0000
      9 H1          2.4976   -4.6757   -0.4982 H         1 <0>         0.0000
     10 H2          0.9258   -4.0475   -1.0329 H         1 <0>         0.0000
     11 H3          0.3926   -5.1282    1.0850 H         1 <0>         0.0000
     12 H4          1.8656   -4.4944    1.8385 H         1 <0>         0.0000
     13 H5          3.1413   -2.5463    0.4260 H         1 <0>         0.0000
     14 H6          2.3339   -2.0749   -1.0772 H         1 <0>         0.0000
     15 H7         -0.6866   -3.0227    1.1903 H         1 <0>         0.0000
     16 H8          0.3921   -2.8319    2.5719 H         1 <0>         0.0000
     17 H9          1.5718   -1.1463    1.4539 H         1 <0>         0.0000
@<TRIPOS>BOND
     1    1    6 1
     2    1    7 1
     3    1    8 2
     4    2    3 1
     5    2    4 1
     6    3    5 1
     7    4    6 1
     8    5    6 1
     9    2    9 1
    10    2   10 1
    11    3   11 1
    12    3   12 1
    13    4   13 1
    14    4   14 1
    15    5   15 1
    16    5   16 1
    17    6   17 1
@<TRIPOS>MOLECULE
*****
   17    17     0     0     0
SMALL
NO_CHARGES

@<TRIPOS>ATOM
      1 C1          0.1646   -1.1210   -0.1500 C.2       1 <0>         0.0000
      2 C2          1.6889   -3.9830   -0.2485 C.3       1 <0>         0.0000
      3 C3          1.0763   -4.2748    1.1096 C.3       1 <0>         0.0000
      4 C4          2.1800   -2.5494   -0.1026 C.3       1 <0>         0.0000
      5 C5          0.3682   -2.9772    1.4864 C.3       1 <0>         0.0000
      6 C6          1.1244   -1.8651    0.7605 C.3       1 <0>         0.0000
      7 O1         -1.0240   -1.0439    0.2674 O.co2     1 <0>         0.0000
      8 O2          0.6814   -0.6735   -1.2120 O.co2     1 <0>         0.0000
      9 H1          2.4976   -4.6757   -0.4982 H         1 <0>         0.0000
     10 H2          0.9258   -4.0475   -1.0329 H         1 <0>         0.0000
     11 H3          0.3926   -5.1282    1.0850 H         1 <0>         0.0000
     12 H4          1.8656   -4.4944    1.8385 H         1 <0>         0.0000
     13 H5          3.1413   -2.5463    0.4260 H         1 <0>         0.0000
     14 H6          2.3339   -2.0749   -1.0772 H         1 <0>         0.0000
     15 H7         -0.6866   -3.0227    1.1903 H         1 <0>         0.0000
     16 H8          0.3921   -2.8319    2.5719 H         1 <0>         0.0000
     17 H9          1.5718   -1.1463    1.4539 H         1 <0>         0.0000
@<TRIPOS>BOND
     1    1    6 1
     2    1    7 1
     3    1    8 2
     4    2    3 1
     5    2    4 1
     6    3    5 1
     7    4    6 1
     8    5    6 1
     9    2    9 1
    10    2   10 1
    11    3   11 1
    12    3   12 1
    13    4   13 1
    14    4   14 1
    15    5   15 1
    16    5   16 1
    17    6   17 1
