@<TRIPOS>MOLECULE
*****
   23    23     0     0     0
SMALL
NO_CHARGES

@<TRIPOS>ATOM
      1 C1         -0.9266    0.5235    0.4178 C.2       1 <0>         0.0000
      2 C2         -5.3592    1.0249    0.5100 C.3       1 <0>         0.0000
      3 C3         -5.0312    0.8682    1.9903 C.3       1 <0>         0.0000
      4 C4         -4.6210    0.0672   -0.4219 C.3       1 <0>         0.0000
      5 C5         -3.5535    1.0183    2.3465 C.3       1 <0>         0.0000
      6 C6         -3.1393    0.4048   -0.5643 C.3       1 <0>         0.0000
      7 C7         -2.7145   -0.1949    1.9449 C.3       1 <0>         0.0000
      8 C8         -2.2452   -0.2320    0.4936 C.3       1 <0>         0.0000
      9 O1         -0.9908    1.7504    0.7073 O.co2     1 <0>         0.0000
     10 O2          0.0663   -0.1771    0.0737 O.co2     1 <0>         0.0000
     11 H1         -6.4375    0.8654    0.3844 H         1 <0>         0.0000
     12 H2         -5.1675    2.0604    0.2021 H         1 <0>         0.0000
     13 H3         -5.5963    1.6308    2.5410 H         1 <0>         0.0000
     14 H4         -5.4027   -0.1007    2.3465 H         1 <0>         0.0000
     15 H5         -4.7617   -0.9731   -0.1065 H         1 <0>         0.0000
     16 H6         -5.0823    0.1569   -1.4137 H         1 <0>         0.0000
     17 H7         -3.1418    1.9453    1.9320 H         1 <0>         0.0000
     18 H8         -3.4921    1.1148    3.4382 H         1 <0>         0.0000
     19 H9         -2.8009    0.0410   -1.5446 H         1 <0>         0.0000
     20 H10        -3.0070    1.4943   -0.6026 H         1 <0>         0.0000
     21 H11        -1.8406   -0.2398    2.6089 H         1 <0>         0.0000
     22 H12        -3.2858   -1.1086    2.1544 H         1 <0>         0.0000
     23 H13        -2.0308   -1.2716    0.2183 H         1 <0>         0.0000
@<TRIPOS>BOND
     1    1    8 1
     2    1    9 1
     3    1   10 2
     4    2    3 1
     5    2    4 1
     6    3    5 1
     7    4    6 1
     8    5    7 1
     9    6    8 1
    10    7    8 1
    11    2   11 1
    12    2   12 1
    13    3   13 1
    14    3   14 1
    15    4   15 1
    16    4   16 1
    17    5   17 1
    18    5   18 1
    19    6   19 1
    20    6   20 1
    21    7   21 1
    22    7   22 1
    23    8   23 1
@<TRIPOS>MOLECULE
*****
   23    23     0     0     0
SMALL
NO_CHARGES

@<TRIPOS>ATOM
      1 C1          0.9958   -0.5429   -0.1430 C.2       1 <0>         0.0000
      2 C2          1.9816   -4.6828   -2.0386 C.3       1 <0>         0.0000
      3 C3          1.7081   -3.7386   -3.2083 C.3       1 <0>         0.0000
      4 C4          1.3605   -4.2704   -0.7080 C.3       1 <0>         0.0000
      5 C5          2.4815   -2.4273   -3.1042 C.3       1 <0>         0.0000
      6 C6          1.7376   -2.8715   -0.2195 C.3       1 <0>         0.0000
      7 C7          1.7926   -1.3313   -2.2931 C.3       1 <0>         0.0000
      8 C8          1.0577   -1.7754   -1.0320 C.3       1 <0>         0.0000
      9 O1          2.1130   -0.0986    0.2410 O.co2     1 <0>         0.0000
     10 O2         -0.1703   -0.1213    0.0974 O.co2     1 <0>         0.0000
     11 H1          1.5934   -5.6736   -2.3095 H         1 <0>         0.0000
     12 H2          3.0661   -4.8059   -1.9188 H         1 <0>         0.0000
     13 H3          2.0070   -4.2448   -4.1232 H         1 <0>         0.0000
     14 H4          0.6422   -3.5411   -3.2773 H         1 <0>         0.0000
     15 H5          0.2600   -4.3918   -0.7365 H         1 <0>         0.0000
     16 H6          1.7095   -4.9943    0.0535 H         1 <0>         0.0000
     17 H7          3.5092   -2.6081   -2.7374 H         1 <0>         0.0000
     18 H8          2.6082   -2.0442   -4.1343 H         1 <0>         0.0000
     19 H9          1.4058   -2.7723    0.8138 H         1 <0>         0.0000
     20 H10         2.8191   -2.7581   -0.2081 H         1 <0>         0.0000
     21 H11         2.5509   -0.5796   -2.0231 H         1 <0>         0.0000
     22 H12         1.0834   -0.7982   -2.9445 H         1 <0>         0.0000
     23 H13         0.0488   -2.0531   -1.2891 H         1 <0>         0.0000
@<TRIPOS>BOND
     1    1    8 1
     2    1    9 1
     3    1   10 2
     4    2    3 1
     5    2    4 1
     6    3    5 1
     7    4    6 1
     8    5    7 1
     9    6    8 1
    10    7    8 1
    11    2   11 1
    12    2   12 1
    13    3   13 1
    14    3   14 1
    15    4   15 1
    16    4   16 1
    17    5   17 1
    18    5   18 1
    19    6   19 1
    20    6   20 1
    21    7   21 1
    22    7   22 1
    23    8   23 1
@<TRIPOS>MOLECULE
*****
   23    23     0     0     0
SMALL
NO_CHARGES

@<TRIPOS>ATOM
      1 C1         -0.5379   -0.6062   -0.8066 C.2       1 <0>         0.0000
      2 C2          0.0785   -3.7281    0.1087 C.3       1 <0>         0.0000
      3 C3          1.5700   -3.6706   -0.1973 C.3       1 <0>         0.0000
      4 C4         -0.8426   -3.6020   -1.1001 C.3       1 <0>         0.0000
      5 C5          2.1016   -2.2414   -0.2664 C.3       1 <0>         0.0000
      6 C6         -0.4012   -2.6860   -2.2401 C.3       1 <0>         0.0000
      7 C7          1.7319   -1.4670   -1.5289 C.3       1 <0>         0.0000
      8 C8          0.2472   -1.3559   -1.8691 C.3       1 <0>         0.0000
      9 O1          0.1375    0.1931   -0.1009 O.co2     1 <0>         0.0000
     10 O2         -1.7701   -0.8806   -0.7663 O.co2     1 <0>         0.0000
     11 H1         -0.1279   -4.6886    0.6011 H         1 <0>         0.0000
     12 H2         -0.1717   -2.9530    0.8462 H         1 <0>         0.0000
     13 H3          2.0963   -4.1963    0.5955 H         1 <0>         0.0000
     14 H4          1.7751   -4.1913   -1.1279 H         1 <0>         0.0000
     15 H5         -1.1012   -4.6181   -1.4964 H         1 <0>         0.0000
     16 H6         -1.8215   -3.2141   -0.7229 H         1 <0>         0.0000
     17 H7          1.8211   -1.6770    0.6441 H         1 <0>         0.0000
     18 H8          3.2065   -2.3063   -0.2310 H         1 <0>         0.0000
     19 H9          0.3345   -3.2477   -2.8582 H         1 <0>         0.0000
     20 H10        -1.2544   -2.5330   -2.9403 H         1 <0>         0.0000
     21 H11         2.1579   -0.4521   -1.4433 H         1 <0>         0.0000
     22 H12         2.2558   -1.9168   -2.3895 H         1 <0>         0.0000
     23 H13         0.2077   -0.7036   -2.8131 H         1 <0>         0.0000
@<TRIPOS>BOND
     1    1    8 1
     2    1    9 1
     3    1   10 2
     4    2    3 1
     5    2    4 1
     6    3    5 1
     7    4    6 1
     8    5    7 1
     9    6    8 1
    10    7    8 1
    11    2   11 1
    12    2   12 1
    13    3   13 1
    14    3   14 1
    15    4   15 1
    16    4   16 1
    17    5   17 1
    18    5   18 1
    19    6   19 1
    20    6   20 1
    21    7   21 1
    22    7   22 1
    23    8   23 1
@<TRIPOS>MOLECULE
*****
   23    23     0     0     0
SMALL
NO_CHARGES

@<TRIPOS>ATOM
      1 C1          0.4210   -0.5246    0.9246 C.2       1 <0>         0.0000
      2 C2          1.4552   -3.9107    3.5513 C.3       1 <0>         0.0000
      3 C3          2.7454   -3.8720    2.7406 C.3       1 <0>         0.0000
      4 C4          0.5678   -2.6746    3.4173 C.3       1 <0>         0.0000
      5 C5          2.5609   -3.6690    1.2388 C.3       1 <0>         0.0000
      6 C6         -0.1725   -2.6114    2.0813 C.3       1 <0>         0.0000
      7 C7          2.1232   -2.2507    0.8829 C.3       1 <0>         0.0000
      8 C8          0.6144   -2.0339    0.9083 C.3       1 <0>         0.0000
      9 O1          0.8466    0.0622    1.9579 O.co2     1 <0>         0.0000
     10 O2         -0.1428   -0.0518   -0.1019 O.co2     1 <0>         0.0000
     11 H1          0.8782   -4.7856    3.2263 H         1 <0>         0.0000
     12 H2          1.6941   -4.0801    4.6086 H         1 <0>         0.0000
     13 H3          3.3583   -3.0472    3.1261 H         1 <0>         0.0000
     14 H4          3.3201   -4.7883    2.9242 H         1 <0>         0.0000
     15 H5         -0.1306   -2.6002    4.2598 H         1 <0>         0.0000
     16 H6          1.2223   -1.7949    3.4789 H         1 <0>         0.0000
     17 H7          3.4615   -3.9617    0.6893 H         1 <0>         0.0000
     18 H8          1.7650   -4.3515    0.9158 H         1 <0>         0.0000
     19 H9         -0.4629   -3.6421    1.8068 H         1 <0>         0.0000
     20 H10        -1.1359   -2.0862    2.2166 H         1 <0>         0.0000
     21 H11         2.6010   -1.5594    1.5795 H         1 <0>         0.0000
     22 H12         2.5009   -1.9969   -0.1084 H         1 <0>         0.0000
     23 H13         0.1998   -2.3957   -0.0405 H         1 <0>         0.0000
@<TRIPOS>BOND
     1    1    8 1
     2    1    9 1
     3    1   10 2
     4    2    3 1
     5    2    4 1
     6    3    5 1
     7    4    6 1
     8    5    7 1
     9    6    8 1
    10    7    8 1
    11    2   11 1
    12    2   12 1
    13    3   13 1
    14    3   14 1
    15    4   15 1
    16    4   16 1
    17    5   17 1
    18    5   18 1
    19    6   19 1
    20    6   20 1
    21    7   21 1
    22    7   22 1
    23    8   23 1
@<TRIPOS>MOLECULE
*****
   23    23     0     0     0
SMALL
NO_CHARGES

@<TRIPOS>ATOM
      1 C1         -0.9266    0.5235    0.4178 C.2       1 <0>         0.0000
      2 C2         -5.3592    1.0249    0.5100 C.3       1 <0>         0.0000
      3 C3         -5.0312    0.8682    1.9903 C.3       1 <0>         0.0000
      4 C4         -4.6210    0.0672   -0.4219 C.3       1 <0>         0.0000
      5 C5         -3.5535    1.0183    2.3465 C.3       1 <0>         0.0000
      6 C6         -3.1393    0.4048   -0.5643 C.3       1 <0>         0.0000
      7 C7         -2.7145   -0.1949    1.9449 C.3       1 <0>         0.0000
      8 C8         -2.2452   -0.2320    0.4936 C.3       1 <0>         0.0000
      9 O1         -0.2546    0.5436    1.4861 O.co2     1 <0>         0.0000
     10 O2         -0.6733    1.0354   -0.7087 O.co2     1 <0>         0.0000
     11 H1         -6.4375    0.8654    0.3844 H         1 <0>         0.0000
     12 H2         -5.1675    2.0604    0.2021 H         1 <0>         0.0000
     13 H3         -5.5963    1.6308    2.5410 H         1 <0>         0.0000
     14 H4         -5.4027   -0.1007    2.3465 H         1 <0>         0.0000
     15 H5         -4.7617   -0.9731   -0.1065 H         1 <0>         0.0000
     16 H6         -5.0823    0.1569   -1.4137 H         1 <0>         0.0000
     17 H7         -3.1418    1.9453    1.9320 H         1 <0>         0.0000
     18 H8         -3.4921    1.1148    3.4382 H         1 <0>         0.0000
     19 H9         -2.8009    0.0410   -1.5446 H         1 <0>         0.0000
     20 H10        -3.0070    1.4943   -0.6026 H         1 <0>         0.0000
     21 H11        -1.8406   -0.2398    2.6089 H         1 <0>         0.0000
     22 H12        -3.2858   -1.1086    2.1544 H         1 <0>         0.0000
     23 H13        -2.0308   -1.2716    0.2183 H         1 <0>         0.0000
@<TRIPOS>BOND
     1    1    8 1
     2    1    9 1
     3    1   10 2
     4    2    3 1
     5    2    4 1
     6    3    5 1
     7    4    6 1
     8    5    7 1
     9    6    8 1
    10    7    8 1
    11    2   11 1
    12    2   12 1
    13    3   13 1
    14    3   14 1
    15    4   15 1
    16    4   16 1
    17    5   17 1
    18    5   18 1
    19    6   19 1
    20    6   20 1
    21    7   21 1
    22    7   22 1
    23    8   23 1
@<TRIPOS>MOLECULE
*****
   23    23     0     0     0
SMALL
NO_CHARGES

@<TRIPOS>ATOM
      1 C1          0.4210   -0.5246    0.9246 C.2       1 <0>         0.0000
      2 C2          1.4552   -3.9107    3.5513 C.3       1 <0>         0.0000
      3 C3          2.7454   -3.8720    2.7406 C.3       1 <0>         0.0000
      4 C4          0.5678   -2.6746    3.4173 C.3       1 <0>         0.0000
      5 C5          2.5609   -3.6690    1.2388 C.3       1 <0>         0.0000
      6 C6         -0.1725   -2.6114    2.0813 C.3       1 <0>         0.0000
      7 C7          2.1232   -2.2507    0.8829 C.3       1 <0>         0.0000
      8 C8          0.6144   -2.0339    0.9083 C.3       1 <0>         0.0000
      9 O1          1.3710    0.1459    0.4337 O.co2     1 <0>         0.0000
     10 O2         -0.6695   -0.1358    1.4294 O.co2     1 <0>         0.0000
     11 H1          0.8782   -4.7856    3.2263 H         1 <0>         0.0000
     12 H2          1.6941   -4.0801    4.6086 H         1 <0>         0.0000
     13 H3          3.3583   -3.0472    3.1261 H         1 <0>         0.0000
     14 H4          3.3201   -4.7883    2.9242 H         1 <0>         0.0000
     15 H5         -0.1306   -2.6002    4.2598 H         1 <0>         0.0000
     16 H6          1.2223   -1.7949    3.4789 H         1 <0>         0.0000
     17 H7          3.4615   -3.9617    0.6893 H         1 <0>         0.0000
     18 H8          1.7650   -4.3515    0.9158 H         1 <0>         0.0000
     19 H9         -0.4629   -3.6421    1.8068 H         1 <0>         0.0000
     20 H10        -1.1359   -2.0862    2.2166 H         1 <0>         0.0000
     21 H11         2.6010   -1.5594    1.5795 H         1 <0>         0.0000
     22 H12         2.5009   -1.9969   -0.1084 H         1 <0>         0.0000
     23 H13         0.1998   -2.3957   -0.0405 H         1 <0>         0.0000
@<TRIPOS>BOND
     1    1    8 1
     2    1    9 1
     3    1   10 2
     4    2    3 1
     5    2    4 1
     6    3    5 1
     7    4    6 1
     8    5    7 1
     9    6    8 1
    10    7    8 1
    11    2   11 1
    12    2   12 1
    13    3   13 1
    14    3   14 1
    15    4   15 1
    16    4   16 1
    17    5   17 1
    18    5   18 1
    19    6   19 1
    20    6   20 1
    21    7   21 1
    22    7   22 1
    23    8   23 1
@<TRIPOS>MOLECULE
*****
   23    23     0     0     0
SMALL
NO_CHARGES

@<TRIPOS>ATOM
      1 C1          0.9530   -0.6208    0.1256 C.2       1 <0>         0.0000
      2 C2          0.5568   -4.0780   -2.7625 C.3       1 <0>         0.0000
      3 C3          0.8705   -4.8135   -1.4627 C.3       1 <0>         0.0000
      4 C4          1.4158   -2.8294   -2.9615 C.3       1 <0>         0.0000
      5 C5          0.1153   -4.3144   -0.2332 C.3       1 <0>         0.0000
      6 C6          1.0694   -1.6501   -2.0565 C.3       1 <0>         0.0000
      7 C7         -0.0884   -2.8061   -0.1042 C.3       1 <0>         0.0000
      8 C8          1.0988   -1.9685   -0.5640 C.3       1 <0>         0.0000
      9 O1          0.3739   -0.6488    1.2468 O.co2     1 <0>         0.0000
     10 O2          1.4320    0.3566   -0.5151 O.co2     1 <0>         0.0000
     11 H1          0.7408   -4.7593   -3.5899 H         1 <0>         0.0000
     12 H2         -0.4962   -3.8110   -2.7869 H         1 <0>         0.0000
     13 H3          0.6242   -5.8731   -1.6110 H         1 <0>         0.0000
     14 H4          1.9514   -4.7779   -1.2754 H         1 <0>         0.0000
     15 H5          2.4916   -3.0820   -2.8846 H         1 <0>         0.0000
     16 H6          1.2726   -2.5010   -4.0092 H         1 <0>         0.0000
     17 H7         -0.8560   -4.8551   -0.1300 H         1 <0>         0.0000
     18 H8          0.6983   -4.6444    0.6580 H         1 <0>         0.0000
     19 H9          1.8063   -0.8547   -2.2377 H         1 <0>         0.0000
     20 H10         0.1049   -1.2191   -2.3578 H         1 <0>         0.0000
     21 H11        -0.9733   -2.5298   -0.6810 H         1 <0>         0.0000
     22 H12        -0.3127   -2.5628    0.9354 H         1 <0>         0.0000
     23 H13         2.0069   -2.4169   -0.2765 H         1 <0>         0.0000
@<TRIPOS>BOND
     1    1    8 1
     2    1    9 1
     3    1   10 2
     4    2    3 1
     5    2    4 1
     6    3    5 1
     7    4    6 1
     8    5    7 1
     9    6    8 1
    10    7    8 1
    11    2   11 1
    12    2   12 1
    13    3   13 1
    14    3   14 1
    15    4   15 1
    16    4   16 1
    17    5   17 1
    18    5   18 1
    19    6   19 1
    20    6   20 1
    21    7   21 1
    22    7   22 1
    23    8   23 1
